<configuration>
  <input>
    <net-file value="../../aquidneck_island.net.xml"/>
    <route-files value="baseline_sim_trips.xml"/>
  </input>
  <report>
    <error-log value="simulation_errors.txt"/>
  </report>
</configuration>
