<?xml version="1.0" encoding="UTF-8"?>

<!-- generated on 11/10/19 09:07:30 by Eclipse SUMO od2trips Version 1.3.1
<configuration xmlns:xsi="http://www.w3.org/2001/XMLSchema-instance" xsi:noNamespaceSchemaLocation="http://sumo.dlr.de/xsd/od2tripsConfiguration.xsd">

    <input>
        <taz-files value="../../tazs/newport_neighborhoods.xml"/>
        <od-matrix-files value="baseline_od.txt"/>
    </input>

    <output>
        <output-file value="baseline_sim_trips.xml"/>
    </output>

    <report>
        <error-log value="router_errors.txt"/>
    </report>

</configuration>
-->

<routes xmlns:xsi="http://www.w3.org/2001/XMLSchema-instance" xsi:noNamespaceSchemaLocation="http://sumo.dlr.de/xsd/routes_file.xsd">
    <trip id="63" depart="0.79" from="-19358499#1" to="19352037" fromTaz="americas_cup" toTaz="bellevue" departLane="free" departSpeed="max"/>
    <trip id="283" depart="2.83" from="19352058" to="19357114#3" fromTaz="americas_cup" toTaz="bowery" departLane="free" departSpeed="max"/>
    <trip id="519" depart="4.77" from="19355160#0" to="-19356452#2" fromTaz="bellevue" toTaz="bowery" departLane="free" departSpeed="max"/>
    <trip id="245" depart="11.12" from="19353318" to="-19353264#0" fromTaz="americas_cup" toTaz="bowery" departLane="free" departSpeed="max"/>
    <trip id="88" depart="16.72" from="-19352058" to="19357539#1" fromTaz="americas_cup" toTaz="bellevue" departLane="free" departSpeed="max"/>
    <trip id="9" depart="18.39" from="-19352058" to="-19356025#1" fromTaz="americas_cup" toTaz="bellevue" departLane="free" departSpeed="max"/>
    <trip id="748" depart="18.97" from="-19350124" to="-19355169#0" fromTaz="bowery" toTaz="the_point" departLane="free" departSpeed="max"/>
    <trip id="412" depart="19.61" from="-19355160#3" to="-19351857#5" fromTaz="bellevue" toTaz="bliss" departLane="free" departSpeed="max"/>
    <trip id="391" depart="23.05" from="511366397" to="329995330#4" fromTaz="americas_cup" toTaz="warner" departLane="free" departSpeed="max"/>
    <trip id="198" depart="36.86" from="-19352058" to="19354574#0" fromTaz="americas_cup" toTaz="bliss" departLane="free" departSpeed="max"/>
    <trip id="526" depart="37.70" from="19359987" to="19353264#3" fromTaz="bellevue" toTaz="bowery" departLane="free" departSpeed="max"/>
    <trip id="142" depart="39.03" from="19355636" to="-19358927#4" fromTaz="americas_cup" toTaz="bliss" departLane="free" departSpeed="max"/>
    <trip id="571" depart="46.90" from="19357539#1" to="19357114#3" fromTaz="bellevue" toTaz="bowery" departLane="free" departSpeed="max"/>
    <trip id="771" depart="47.95" from="19357968" to="19357397#1" fromTaz="bowery" toTaz="the_point" departLane="free" departSpeed="max"/>
    <trip id="543" depart="54.47" from="-19359987" to="19357991#2" fromTaz="bellevue" toTaz="bowery" departLane="free" departSpeed="max"/>
    <trip id="5" depart="55.65" from="19358499#1" to="-19352037" fromTaz="americas_cup" toTaz="bellevue" departLane="free" departSpeed="max"/>
    <trip id="1048" depart="59.07" from="-19357791" to="-19360459#2" fromTaz="the_point" toTaz="malbone" departLane="free" departSpeed="max"/>
    <trip id="597" depart="70.72" from="19352037" to="-19352131#5" fromTaz="bellevue" toTaz="bowery" departLane="free" departSpeed="max"/>
    <trip id="1073" depart="72.86" from="19357397#2" to="-19351996#0" fromTaz="the_point" toTaz="malbone" departLane="free" departSpeed="max"/>
    <trip id="587" depart="73.98" from="-661061477#0" to="19353264#0" fromTaz="bellevue" toTaz="bowery" departLane="free" departSpeed="max"/>
    <trip id="710" depart="76.05" from="-19357057#5" to="19357397#1" fromTaz="bowery" toTaz="the_point" departLane="free" departSpeed="max"/>
    <trip id="551" depart="76.76" from="-19356025#1" to="-440717074#4" fromTaz="bellevue" toTaz="bowery" departLane="free" departSpeed="max"/>
    <trip id="418" depart="77.89" from="-576756561#0" to="19352770" fromTaz="bellevue" toTaz="bliss" departLane="free" departSpeed="max"/>
    <trip id="111" depart="81.63" from="-511366397" to="-19361189#2" fromTaz="americas_cup" toTaz="bliss" departLane="free" departSpeed="max"/>
    <trip id="827" depart="88.88" from="-19360339#4" to="-19361255#4" fromTaz="fifth_ward" toTaz="the_point" departLane="free" departSpeed="max"/>
    <trip id="905" depart="92.51" from="19354435#7" to="-19359279#0" fromTaz="the_point" toTaz="kay" departLane="free" departSpeed="max"/>
    <trip id="913" depart="95.90" from="-19348353" to="19352285#4" fromTaz="the_point" toTaz="kay" departLane="free" departSpeed="max"/>
    <trip id="223" depart="101.43" from="-19352058" to="-19357991#1" fromTaz="americas_cup" toTaz="bowery" departLane="free" departSpeed="max"/>
    <trip id="508" depart="105.18" from="576756561#0" to="19352131#9" fromTaz="bellevue" toTaz="bowery" departLane="free" departSpeed="max"/>
    <trip id="399" depart="106.94" from="-511366397" to="19353333#2" fromTaz="americas_cup" toTaz="warner" departLane="free" departSpeed="max"/>
    <trip id="367" depart="107.93" from="-19358499#1" to="-19357839" fromTaz="americas_cup" toTaz="warner" departLane="free" departSpeed="max"/>
    <trip id="694" depart="108.25" from="-19358928" to="19354792#0" fromTaz="bliss" toTaz="broadway_business" departLane="free" departSpeed="max"/>
    <trip id="871" depart="108.86" from="-19356941" to="-570941862#5" fromTaz="fifth_ward" toTaz="the_point" departLane="free" departSpeed="max"/>
    <trip id="882" depart="110.09" from="-19354661#2" to="-19355169#1" fromTaz="fifth_ward" toTaz="the_point" departLane="free" departSpeed="max"/>
    <trip id="370" depart="114.89" from="19352058" to="329995330#6" fromTaz="americas_cup" toTaz="warner" departLane="free" departSpeed="max"/>
    <trip id="129" depart="116.59" from="19358499#0" to="19358928" fromTaz="americas_cup" toTaz="bliss" departLane="free" departSpeed="max"/>
    <trip id="958" depart="120.35" from="-19355169#0" to="19358038#1" fromTaz="the_point" toTaz="kay" departLane="free" departSpeed="max"/>
    <trip id="942" depart="127.28" from="570942394#2" to="19359279#0" fromTaz="the_point" toTaz="kay" departLane="free" departSpeed="max"/>
    <trip id="918" depart="138.74" from="-19356776#0" to="19355490" fromTaz="the_point" toTaz="kay" departLane="free" departSpeed="max"/>
    <trip id="647" depart="145.86" from="19358136#4" to="-329995277#2" fromTaz="bliss" toTaz="broadway_business" departLane="free" departSpeed="max"/>
    <trip id="400" depart="146.94" from="19355160#0" to="-19359704" fromTaz="bellevue" toTaz="bliss" departLane="free" departSpeed="max"/>
    <trip id="318" depart="150.40" from="511366397" to="329995330#8" fromTaz="americas_cup" toTaz="warner" departLane="free" departSpeed="max"/>
    <trip id="546" depart="153.28" from="-19355160#0" to="19354328" fromTaz="bellevue" toTaz="bowery" departLane="free" departSpeed="max"/>
    <trip id="565" depart="153.62" from="19359987" to="-19354933" fromTaz="bellevue" toTaz="bowery" departLane="free" departSpeed="max"/>
    <trip id="649" depart="159.54" from="-19360850#0" to="19359517#0" fromTaz="bliss" toTaz="broadway_business" departLane="free" departSpeed="max"/>
    <trip id="19" depart="163.02" from="-19358499#1" to="-19355160#0" fromTaz="americas_cup" toTaz="bellevue" departLane="free" departSpeed="max"/>
    <trip id="567" depart="167.76" from="-19352037" to="19357991#1" fromTaz="bellevue" toTaz="bowery" departLane="free" departSpeed="max"/>
    <trip id="92" depart="169.75" from="-19358499#0" to="19359987" fromTaz="americas_cup" toTaz="bellevue" departLane="free" departSpeed="max"/>
    <trip id="405" depart="171.44" from="-19359987" to="-19354615" fromTaz="bellevue" toTaz="bliss" departLane="free" departSpeed="max"/>
    <trip id="1050" depart="179.28" from="586093472#1" to="-19360012" fromTaz="the_point" toTaz="malbone" departLane="free" departSpeed="max"/>
    <trip id="137" depart="179.52" from="-19358499#0" to="19352285#12" fromTaz="americas_cup" toTaz="bliss" departLane="free" departSpeed="max"/>
    <trip id="457" depart="182.42" from="19357539#0" to="19361005#0" fromTaz="bellevue" toTaz="bliss" departLane="free" departSpeed="max"/>
    <trip id="1020" depart="185.27" from="-19350832" to="-19357506#0" fromTaz="the_point" toTaz="malbone" departLane="free" departSpeed="max"/>
    <trip id="73" depart="186.01" from="19358499#0" to="-19355160#3" fromTaz="americas_cup" toTaz="bellevue" departLane="free" departSpeed="max"/>
    <trip id="378" depart="187.53" from="19353318" to="-329995330#6" fromTaz="americas_cup" toTaz="warner" departLane="free" departSpeed="max"/>
    <trip id="106" depart="196.41" from="19358499#0" to="-19352285#14" fromTaz="americas_cup" toTaz="bliss" departLane="free" departSpeed="max"/>
    <trip id="503" depart="200.43" from="19359987" to="-19352131#10" fromTaz="bellevue" toTaz="bowery" departLane="free" departSpeed="max"/>
    <trip id="256" depart="202.94" from="-511366397" to="-19350124" fromTaz="americas_cup" toTaz="bowery" departLane="free" departSpeed="max"/>
    <trip id="62" depart="207.72" from="19355636" to="576756561#0" fromTaz="americas_cup" toTaz="bellevue" departLane="free" departSpeed="max"/>
    <trip id="333" depart="208.04" from="19353318" to="19351859#2" fromTaz="americas_cup" toTaz="warner" departLane="free" departSpeed="max"/>
    <trip id="165" depart="211.05" from="-19358499#1" to="-19353092#6" fromTaz="americas_cup" toTaz="bliss" departLane="free" departSpeed="max"/>
    <trip id="68" depart="212.57" from="-19358499#0" to="-19359987" fromTaz="americas_cup" toTaz="bellevue" departLane="free" departSpeed="max"/>
    <trip id="147" depart="214.16" from="19355636" to="19360353#2" fromTaz="americas_cup" toTaz="bliss" departLane="free" departSpeed="max"/>
    <trip id="916" depart="218.23" from="-19359702" to="-19357385#7" fromTaz="the_point" toTaz="kay" departLane="free" departSpeed="max"/>
    <trip id="1059" depart="220.53" from="19348353" to="-288107045#10" fromTaz="the_point" toTaz="malbone" departLane="free" departSpeed="max"/>
    <trip id="264" depart="222.36" from="19355636" to="19352131#10" fromTaz="americas_cup" toTaz="bowery" departLane="free" departSpeed="max"/>
    <trip id="362" depart="224.07" from="-19358499#0" to="19351859#1" fromTaz="americas_cup" toTaz="warner" departLane="free" departSpeed="max"/>
    <trip id="963" depart="227.50" from="19354052" to="19354745#0" fromTaz="the_point" toTaz="kay" departLane="free" departSpeed="max"/>
    <trip id="1097" depart="232.39" from="19355169#1" to="19354349#1" fromTaz="the_point" toTaz="malbone" departLane="free" departSpeed="max"/>
    <trip id="943" depart="236.20" from="19358534#0" to="19355057" fromTaz="the_point" toTaz="kay" departLane="free" departSpeed="max"/>
    <trip id="27" depart="238.38" from="511366397" to="661061477#0" fromTaz="americas_cup" toTaz="bellevue" departLane="free" departSpeed="max"/>
    <trip id="534" depart="240.79" from="19357539#1" to="-19357968" fromTaz="bellevue" toTaz="bowery" departLane="free" departSpeed="max"/>
    <trip id="511" depart="243.94" from="19357539#1" to="-19357057#5" fromTaz="bellevue" toTaz="bowery" departLane="free" departSpeed="max"/>
    <trip id="274" depart="244.16" from="19358499#0" to="19358435" fromTaz="americas_cup" toTaz="bowery" departLane="free" departSpeed="max"/>
    <trip id="819" depart="244.71" from="19359759#3" to="19357397#3" fromTaz="fifth_ward" toTaz="the_point" departLane="free" departSpeed="max"/>
    <trip id="915" depart="248.19" from="19352924#8" to="661061474#1" fromTaz="the_point" toTaz="kay" departLane="free" departSpeed="max"/>
    <trip id="699" depart="259.99" from="-19354572#0" to="-19356382#34" fromTaz="bliss" toTaz="broadway_business" departLane="free" departSpeed="max"/>
    <trip id="422" depart="260.97" from="19359987" to="19353810#1" fromTaz="bellevue" toTaz="bliss" departLane="free" departSpeed="max"/>
    <trip id="806" depart="263.80" from="19359786#5" to="570942394#4" fromTaz="fifth_ward" toTaz="the_point" departLane="free" departSpeed="max"/>
    <trip id="502" depart="272.92" from="-19355160#3" to="-19357057#4" fromTaz="bellevue" toTaz="bowery" departLane="free" departSpeed="max"/>
    <trip id="889" depart="275.22" from="19354661#2" to="-19357397#1" fromTaz="fifth_ward" toTaz="the_point" departLane="free" departSpeed="max"/>
    <trip id="618" depart="278.44" from="-19352285#7" to="19354745#1" fromTaz="bliss" toTaz="broadway_business" departLane="free" departSpeed="max"/>
    <trip id="780" depart="278.73" from="19357057#3" to="-19358545#1" fromTaz="bowery" toTaz="the_point" departLane="free" departSpeed="max"/>
    <trip id="356" depart="280.53" from="19353318" to="19356054" fromTaz="americas_cup" toTaz="warner" departLane="free" departSpeed="max"/>
    <trip id="761" depart="280.71" from="19352131#10" to="-19357791" fromTaz="bowery" toTaz="the_point" departLane="free" departSpeed="max"/>
    <trip id="609" depart="284.18" from="-19357988" to="-19356382#35" fromTaz="bliss" toTaz="broadway_business" departLane="free" departSpeed="max"/>
    <trip id="197" depart="292.21" from="-19353318" to="-19356535#8" fromTaz="americas_cup" toTaz="bliss" departLane="free" departSpeed="max"/>
    <trip id="408" depart="294.01" from="19356025#1" to="-19352285#12" fromTaz="bellevue" toTaz="bliss" departLane="free" departSpeed="max"/>
    <trip id="1034" depart="298.61" from="19348353" to="-19360818" fromTaz="the_point" toTaz="malbone" departLane="free" departSpeed="max"/>
    <trip id="960" depart="302.63" from="19354435#0" to="19348099" fromTaz="the_point" toTaz="kay" departLane="free" departSpeed="max"/>
    <trip id="654" depart="302.92" from="-19353591#1" to="661061473#0" fromTaz="bliss" toTaz="broadway_business" departLane="free" departSpeed="max"/>
    <trip id="547" depart="302.97" from="19352037" to="19352901#1" fromTaz="bellevue" toTaz="bowery" departLane="free" departSpeed="max"/>
    <trip id="268" depart="305.15" from="-19355636" to="19353264#5" fromTaz="americas_cup" toTaz="bowery" departLane="free" departSpeed="max"/>
    <trip id="661" depart="306.30" from="-19354956#1" to="661061473#1" fromTaz="bliss" toTaz="broadway_business" departLane="free" departSpeed="max"/>
    <trip id="260" depart="312.98" from="-19358499#0" to="19357057#4" fromTaz="americas_cup" toTaz="bowery" departLane="free" departSpeed="max"/>
    <trip id="413" depart="314.38" from="19355160#0" to="-19356535#5" fromTaz="bellevue" toTaz="bliss" departLane="free" departSpeed="max"/>
    <trip id="1044" depart="318.06" from="19358545#1" to="-19358286#1" fromTaz="the_point" toTaz="malbone" departLane="free" departSpeed="max"/>
    <trip id="876" depart="318.37" from="19361362" to="-586093472#0" fromTaz="fifth_ward" toTaz="the_point" departLane="free" departSpeed="max"/>
    <trip id="326" depart="320.66" from="-19358499#0" to="-19356054" fromTaz="americas_cup" toTaz="warner" departLane="free" departSpeed="max"/>
    <trip id="98" depart="322.82" from="19358499#0" to="19355160#0" fromTaz="americas_cup" toTaz="bellevue" departLane="free" departSpeed="max"/>
    <trip id="70" depart="325.69" from="-19358499#0" to="-19352037" fromTaz="americas_cup" toTaz="bellevue" departLane="free" departSpeed="max"/>
    <trip id="180" depart="326.27" from="19355636" to="-19352542" fromTaz="americas_cup" toTaz="bliss" departLane="free" departSpeed="max"/>
    <trip id="343" depart="327.86" from="19358499#0" to="-329995319#0" fromTaz="americas_cup" toTaz="warner" departLane="free" departSpeed="max"/>
    <trip id="593" depart="335.03" from="19352037" to="-19357968" fromTaz="bellevue" toTaz="bowery" departLane="free" departSpeed="max"/>
    <trip id="929" depart="338.45" from="19355169#0" to="19357385#0" fromTaz="the_point" toTaz="kay" departLane="free" departSpeed="max"/>
    <trip id="369" depart="340.73" from="-19358499#1" to="-19354183#0" fromTaz="americas_cup" toTaz="warner" departLane="free" departSpeed="max"/>
    <trip id="582" depart="340.80" from="19355160#3" to="-19353816#2" fromTaz="bellevue" toTaz="bowery" departLane="free" departSpeed="max"/>
    <trip id="561" depart="342.66" from="19352037" to="19350124" fromTaz="bellevue" toTaz="bowery" departLane="free" departSpeed="max"/>
    <trip id="183" depart="349.67" from="-19358499#1" to="-19358136#3" fromTaz="americas_cup" toTaz="bliss" departLane="free" departSpeed="max"/>
    <trip id="49" depart="353.09" from="19353318" to="19355160#3" fromTaz="americas_cup" toTaz="bellevue" departLane="free" departSpeed="max"/>
    <trip id="207" depart="357.13" from="-511366397" to="-19359071#0" fromTaz="americas_cup" toTaz="bowery" departLane="free" departSpeed="max"/>
    <trip id="50" depart="363.29" from="19353318" to="-576756561#0" fromTaz="americas_cup" toTaz="bellevue" departLane="free" departSpeed="max"/>
    <trip id="87" depart="363.53" from="19358499#1" to="661061477#0" fromTaz="americas_cup" toTaz="bellevue" departLane="free" departSpeed="max"/>
    <trip id="393" depart="368.31" from="19352058" to="-329995330#6" fromTaz="americas_cup" toTaz="warner" departLane="free" departSpeed="max"/>
    <trip id="83" depart="368.78" from="19358499#0" to="-19356025#1" fromTaz="americas_cup" toTaz="bellevue" departLane="free" departSpeed="max"/>
    <trip id="711" depart="374.70" from="329995274#1" to="19361255#0" fromTaz="bowery" toTaz="the_point" departLane="free" departSpeed="max"/>
    <trip id="7" depart="381.92" from="19353318" to="19355160#3" fromTaz="americas_cup" toTaz="bellevue" departLane="free" departSpeed="max"/>
    <trip id="350" depart="382.07" from="-19358499#1" to="19354183#1" fromTaz="americas_cup" toTaz="warner" departLane="free" departSpeed="max"/>
    <trip id="65" depart="386.17" from="-19358499#1" to="-19355160#3" fromTaz="americas_cup" toTaz="bellevue" departLane="free" departSpeed="max"/>
    <trip id="667" depart="389.08" from="19358587#0" to="-19353551#10" fromTaz="bliss" toTaz="broadway_business" departLane="free" departSpeed="max"/>
    <trip id="1056" depart="391.58" from="-570942394#4" to="19360459#10" fromTaz="the_point" toTaz="malbone" departLane="free" departSpeed="max"/>
    <trip id="648" depart="395.17" from="19358587#0" to="19354772" fromTaz="bliss" toTaz="broadway_business" departLane="free" departSpeed="max"/>
    <trip id="691" depart="395.23" from="-19358136#3" to="-19353686#7" fromTaz="bliss" toTaz="broadway_business" departLane="free" departSpeed="max"/>
    <trip id="447" depart="396.42" from="19355160#3" to="19352868" fromTaz="bellevue" toTaz="bliss" departLane="free" departSpeed="max"/>
    <trip id="95" depart="397.95" from="19358499#0" to="-19359987" fromTaz="americas_cup" toTaz="bellevue" departLane="free" departSpeed="max"/>
    <trip id="941" depart="400.21" from="-570942394#2" to="19354772" fromTaz="the_point" toTaz="kay" departLane="free" departSpeed="max"/>
    <trip id="444" depart="409.79" from="19357539#1" to="-19352285#6" fromTaz="bellevue" toTaz="bliss" departLane="free" departSpeed="max"/>
    <trip id="42" depart="410.68" from="-19358499#1" to="-576756561#0" fromTaz="americas_cup" toTaz="bellevue" departLane="free" departSpeed="max"/>
    <trip id="488" depart="416.57" from="-19355160#0" to="-19357825" fromTaz="bellevue" toTaz="bliss" departLane="free" departSpeed="max"/>
    <trip id="299" depart="422.38" from="19352058" to="19352901#0" fromTaz="americas_cup" toTaz="bowery" departLane="free" departSpeed="max"/>
    <trip id="33" depart="423.68" from="19352058" to="19355160#0" fromTaz="americas_cup" toTaz="bellevue" departLane="free" departSpeed="max"/>
    <trip id="437" depart="425.10" from="-19352037" to="-378219319" fromTaz="bellevue" toTaz="bliss" departLane="free" departSpeed="max"/>
    <trip id="950" depart="427.81" from="19356776#0" to="19357385#6" fromTaz="the_point" toTaz="kay" departLane="free" departSpeed="max"/>
    <trip id="208" depart="429.67" from="-511366397" to="19356432" fromTaz="americas_cup" toTaz="bowery" departLane="free" departSpeed="max"/>
    <trip id="981" depart="431.82" from="570942394#2" to="19355490" fromTaz="the_point" toTaz="kay" departLane="free" departSpeed="max"/>
    <trip id="30" depart="433.87" from="511366397" to="19355160#3" fromTaz="americas_cup" toTaz="bellevue" departLane="free" departSpeed="max"/>
    <trip id="26" depart="436.43" from="19355636" to="-576756561#0" fromTaz="americas_cup" toTaz="bellevue" departLane="free" departSpeed="max"/>
    <trip id="656" depart="441.70" from="-19361189#3" to="19354772" fromTaz="bliss" toTaz="broadway_business" departLane="free" departSpeed="max"/>
    <trip id="650" depart="442.81" from="596607447#3" to="-19353686#2" fromTaz="bliss" toTaz="broadway_business" departLane="free" departSpeed="max"/>
    <trip id="1092" depart="445.90" from="-586093472#0" to="19351996#1" fromTaz="the_point" toTaz="malbone" departLane="free" departSpeed="max"/>
    <trip id="259" depart="446.89" from="-19355636" to="-19353264#3" fromTaz="americas_cup" toTaz="bowery" departLane="free" departSpeed="max"/>
    <trip id="426" depart="452.31" from="19355160#0" to="19352285#14" fromTaz="bellevue" toTaz="bliss" departLane="free" departSpeed="max"/>
    <trip id="445" depart="456.61" from="19355160#0" to="19352542" fromTaz="bellevue" toTaz="bliss" departLane="free" departSpeed="max"/>
    <trip id="205" depart="464.16" from="-511366397" to="-19353816#2" fromTaz="americas_cup" toTaz="bowery" departLane="free" departSpeed="max"/>
    <trip id="1098" depart="468.04" from="19352621#1" to="-19352768" fromTaz="the_point" toTaz="malbone" departLane="free" departSpeed="max"/>
    <trip id="750" depart="470.56" from="-19351910#1" to="-19354589#0" fromTaz="bowery" toTaz="the_point" departLane="free" departSpeed="max"/>
    <trip id="430" depart="476.56" from="-661061477#0" to="-19358927#1" fromTaz="bellevue" toTaz="bliss" departLane="free" departSpeed="max"/>
    <trip id="1" depart="476.94" from="19358499#1" to="19357539#1" fromTaz="americas_cup" toTaz="bellevue" departLane="free" departSpeed="max"/>
    <trip id="592" depart="482.04" from="19357539#1" to="-19357991#2" fromTaz="bellevue" toTaz="bowery" departLane="free" departSpeed="max"/>
    <trip id="271" depart="490.44" from="19358499#0" to="-19361135#4" fromTaz="americas_cup" toTaz="bowery" departLane="free" departSpeed="max"/>
    <trip id="949" depart="501.57" from="19352621#2" to="19357704#2" fromTaz="the_point" toTaz="kay" departLane="free" departSpeed="max"/>
    <trip id="178" depart="505.51" from="19355636" to="19354956#5" fromTaz="americas_cup" toTaz="bliss" departLane="free" departSpeed="max"/>
    <trip id="716" depart="510.67" from="-19358435" to="-19355169#1" fromTaz="bowery" toTaz="the_point" departLane="free" departSpeed="max"/>
    <trip id="1012" depart="516.47" from="19359702" to="-19356562#2" fromTaz="the_point" toTaz="malbone" departLane="free" departSpeed="max"/>
    <trip id="727" depart="523.24" from="-19351910#1" to="19354435#3" fromTaz="bowery" toTaz="the_point" departLane="free" departSpeed="max"/>
    <trip id="968" depart="523.56" from="19354437#1" to="661061474#1" fromTaz="the_point" toTaz="kay" departLane="free" departSpeed="max"/>
    <trip id="570" depart="527.29" from="-19356025#1" to="19357114#3" fromTaz="bellevue" toTaz="bowery" departLane="free" departSpeed="max"/>
    <trip id="707" depart="530.66" from="19357991#1" to="19352924#2" fromTaz="bowery" toTaz="the_point" departLane="free" departSpeed="max"/>
    <trip id="836" depart="531.40" from="19352102#1" to="19358534#2" fromTaz="fifth_ward" toTaz="the_point" departLane="free" departSpeed="max"/>
    <trip id="872" depart="531.53" from="19354288#0" to="203954132#0" fromTaz="fifth_ward" toTaz="the_point" departLane="free" departSpeed="max"/>
    <trip id="745" depart="533.42" from="-19353264#5" to="-19360493" fromTaz="bowery" toTaz="the_point" departLane="free" departSpeed="max"/>
    <trip id="584" depart="541.66" from="-19352037" to="-19357057#4" fromTaz="bellevue" toTaz="bowery" departLane="free" departSpeed="max"/>
    <trip id="402" depart="546.44" from="19356025#1" to="19351857#2" fromTaz="bellevue" toTaz="bliss" departLane="free" departSpeed="max"/>
    <trip id="538" depart="558.66" from="19356025#1" to="19357057#3" fromTaz="bellevue" toTaz="bowery" departLane="free" departSpeed="max"/>
    <trip id="724" depart="559.93" from="19353264#3" to="19354437#1" fromTaz="bowery" toTaz="the_point" departLane="free" departSpeed="max"/>
    <trip id="241" depart="560.10" from="19358499#1" to="-19353816#2" fromTaz="americas_cup" toTaz="bowery" departLane="free" departSpeed="max"/>
    <trip id="730" depart="560.11" from="-19353264#5" to="19352924#11" fromTaz="bowery" toTaz="the_point" departLane="free" departSpeed="max"/>
    <trip id="152" depart="568.32" from="-19352058" to="-19353092#1" fromTaz="americas_cup" toTaz="bliss" departLane="free" departSpeed="max"/>
    <trip id="642" depart="569.90" from="-19358136#2" to="-19353551#4" fromTaz="bliss" toTaz="broadway_business" departLane="free" departSpeed="max"/>
    <trip id="336" depart="573.43" from="19355636" to="329995330#0" fromTaz="americas_cup" toTaz="warner" departLane="free" departSpeed="max"/>
    <trip id="176" depart="574.15" from="511366397" to="19354956#5" fromTaz="americas_cup" toTaz="bliss" departLane="free" departSpeed="max"/>
    <trip id="61" depart="587.90" from="-19353318" to="19356025#1" fromTaz="americas_cup" toTaz="bellevue" departLane="free" departSpeed="max"/>
    <trip id="757" depart="589.76" from="-19352131#9" to="-19358545#1" fromTaz="bowery" toTaz="the_point" departLane="free" departSpeed="max"/>
    <trip id="1057" depart="590.69" from="19358534#2" to="-19355289#0" fromTaz="the_point" toTaz="malbone" departLane="free" departSpeed="max"/>
    <trip id="634" depart="591.35" from="19351857#5" to="-661061473#0" fromTaz="bliss" toTaz="broadway_business" departLane="free" departSpeed="max"/>
    <trip id="143" depart="592.10" from="-19352058" to="19352285#14" fromTaz="americas_cup" toTaz="bliss" departLane="free" departSpeed="max"/>
    <trip id="1076" depart="606.98" from="19352924#6" to="-19358286#0" fromTaz="the_point" toTaz="malbone" departLane="free" departSpeed="max"/>
    <trip id="619" depart="612.07" from="-19354956#5" to="-19356382#32" fromTaz="bliss" toTaz="broadway_business" departLane="free" departSpeed="max"/>
    <trip id="77" depart="617.57" from="19358499#1" to="-19355160#0" fromTaz="americas_cup" toTaz="bellevue" departLane="free" departSpeed="max"/>
    <trip id="492" depart="624.75" from="576756561#0" to="19361189#1" fromTaz="bellevue" toTaz="bliss" departLane="free" departSpeed="max"/>
    <trip id="735" depart="629.06" from="-19354328" to="19361255#3" fromTaz="bowery" toTaz="the_point" departLane="free" departSpeed="max"/>
    <trip id="394" depart="635.17" from="-19355636" to="329995330#4" fromTaz="americas_cup" toTaz="warner" departLane="free" departSpeed="max"/>
    <trip id="529" depart="636.26" from="19356025#1" to="-19357991#1" fromTaz="bellevue" toTaz="bowery" departLane="free" departSpeed="max"/>
    <trip id="772" depart="637.60" from="-19352901#1" to="-19352621#2" fromTaz="bowery" toTaz="the_point" departLane="free" departSpeed="max"/>
    <trip id="738" depart="637.90" from="-19357968" to="-445937792" fromTaz="bowery" toTaz="the_point" departLane="free" departSpeed="max"/>
    <trip id="763" depart="639.44" from="19352131#5" to="-19354589#1" fromTaz="bowery" toTaz="the_point" departLane="free" departSpeed="max"/>
    <trip id="732" depart="639.62" from="19357114#3" to="19361255#6" fromTaz="bowery" toTaz="the_point" departLane="free" departSpeed="max"/>
    <trip id="266" depart="640.55" from="-19355636" to="19357114#2" fromTaz="americas_cup" toTaz="bowery" departLane="free" departSpeed="max"/>
    <trip id="475" depart="643.20" from="19357539#0" to="-19357262#1" fromTaz="bellevue" toTaz="bliss" departLane="free" departSpeed="max"/>
    <trip id="569" depart="647.45" from="-661061477#0" to="19354328" fromTaz="bellevue" toTaz="bowery" departLane="free" departSpeed="max"/>
    <trip id="714" depart="648.90" from="-19357057#5" to="570942394#4" fromTaz="bowery" toTaz="the_point" departLane="free" departSpeed="max"/>
    <trip id="553" depart="651.39" from="-19355160#3" to="19353390#0" fromTaz="bellevue" toTaz="bowery" departLane="free" departSpeed="max"/>
    <trip id="671" depart="660.40" from="-19354074" to="19353551#8" fromTaz="bliss" toTaz="broadway_business" departLane="free" departSpeed="max"/>
    <trip id="467" depart="662.61" from="576756561#0" to="-596607447#1" fromTaz="bellevue" toTaz="bliss" departLane="free" departSpeed="max"/>
    <trip id="296" depart="663.46" from="19355636" to="-19351910#1" fromTaz="americas_cup" toTaz="bowery" departLane="free" departSpeed="max"/>
    <trip id="687" depart="663.68" from="19354615" to="-19353551#8" fromTaz="bliss" toTaz="broadway_business" departLane="free" departSpeed="max"/>
    <trip id="293" depart="665.77" from="-19352058" to="-19357057#3" fromTaz="americas_cup" toTaz="bowery" departLane="free" departSpeed="max"/>
    <trip id="277" depart="666.97" from="-19353318" to="-19352131#5" fromTaz="americas_cup" toTaz="bowery" departLane="free" departSpeed="max"/>
    <trip id="639" depart="668.80" from="19354710#0" to="-19358038#0" fromTaz="bliss" toTaz="broadway_business" departLane="free" departSpeed="max"/>
    <trip id="84" depart="669.55" from="19358499#0" to="19357539#0" fromTaz="americas_cup" toTaz="bellevue" departLane="free" departSpeed="max"/>
    <trip id="689" depart="673.42" from="19356535#8" to="-329995277#2" fromTaz="bliss" toTaz="broadway_business" departLane="free" departSpeed="max"/>
    <trip id="1082" depart="673.69" from="19357397#1" to="19358254#1" fromTaz="the_point" toTaz="malbone" departLane="free" departSpeed="max"/>
    <trip id="15" depart="674.42" from="19352058" to="19352037" fromTaz="americas_cup" toTaz="bellevue" departLane="free" departSpeed="max"/>