<?xml version="1.0" encoding="UTF-8"?>
<tlLogics version="1.3" xmlns:xsi="http://www.w3.org/2001/XMLSchema-instance" xsi:noNamespaceSchemaLocation="http://sumo.dlr.de/xsd/tllogic_file.xsd">
    <!-- Deleted Elements -->
    <!-- implicit via changed node type: <delete id="201065302" programID="0"/> -->
    <!-- implicit via changed node type: <delete id="201149958" programID="0"/> -->
    <!-- implicit via changed node type: <delete id="201150138" programID="0"/> -->
    <!-- implicit via changed node type: <delete id="5785663193" programID="0"/> -->
    <!-- implicit via changed node type: <delete id="5785663194" programID="0"/> -->
    <!-- implicit via changed node type: <delete id="5785663195" programID="0"/> -->
    <!-- implicit via changed node type: <delete id="5785663196" programID="0"/> -->
    <!-- implicit via changed node type: <delete id="5785663197" programID="0"/> -->
    <!-- implicit via changed node type: <delete id="5785663198" programID="0"/> -->
    <!-- implicit via changed node type: <delete id="joinedS_3" programID="0"/> -->
    <delete from="-19351906" fromLane="1" to="-71472826" toLane="1" linkIndex="0" tl="201102463"/>
    <delete from="-19351906" fromLane="1" to="610207981" toLane="0" linkIndex="1" tl="201102463"/>
    <delete from="-19351906" fromLane="1" to="-560828708" toLane="1" linkIndex="2" tl="201102463"/>
    <delete from="-19352433" fromLane="0" to="-71472970#2" toLane="1" linkIndex="4" tl="201128244"/>
    <delete from="-19352433" fromLane="0" to="65356877#0" toLane="1" linkIndex="5" tl="201128244"/>
    <delete from="-19352484#0" fromLane="1" to="19356382#0" toLane="1" linkIndex="5" tl="457779811"/>
    <delete from="-19352909" fromLane="1" to="71472826" toLane="1" linkIndex="9" tl="201150041"/>
    <delete from="-19354558#0" fromLane="1" to="288107045#0" toLane="1" linkIndex="11" tl="201153297"/>
    <delete from="-19356382#0" fromLane="1" to="19352484#0" toLane="1" linkIndex="6" tl="457779811"/>
    <delete from="-19356382#0" fromLane="1" to="19356099#0" toLane="2" linkIndex="7" tl="457779811"/>
    <delete from="-19356382#0" fromLane="1" to="-617523920#3" toLane="1" linkIndex="8" tl="457779811"/>
    <delete from="-19360420#0" fromLane="0" to="71472729#4" toLane="1" linkIndex="8" tl="joinedS_2"/>
    <delete from="-19360420#0" fromLane="0" to="-19350562" toLane="1" linkIndex="9" tl="joinedS_2"/>
    <delete from="-440717081#0" fromLane="1" to="-570938685" toLane="1" linkIndex="12" tl="joinedS_3"/>
    <delete from="-440717081#0" fromLane="1" to="570938686#4" toLane="2" linkIndex="13" tl="joinedS_3"/>
    <delete from="-440717081#1" fromLane="1" to="-440717081#0" toLane="1" linkIndex="3" tl="joinedS_3"/>
    <delete from="-492477207#0" fromLane="1" to="19359368#0" toLane="1" linkIndex="7" tl="joinedS_5"/>
    <delete from="-492477207#1" fromLane="1" to="-492477207#0" toLane="1" linkIndex="1" tl="joinedS_5"/>
    <delete from="-570942394#2" fromLane="0" to="-570942394#1" toLane="0" linkIndex="1" tl="201270130"/>
    <delete from="-65356877#0" fromLane="0" to="19352433" toLane="1" linkIndex="0" tl="201128244"/>
    <delete from="-65356877#0" fromLane="0" to="-71472970#2" toLane="1" linkIndex="1" tl="201128244"/>
    <delete from="-71472826" fromLane="1" to="-19360411" toLane="1" linkIndex="6" tl="201150041"/>
    <delete from="-71472826" fromLane="1" to="-570942397" toLane="1" linkIndex="7" tl="201150041"/>
    <delete from="-71472826" fromLane="1" to="19352909" toLane="1" linkIndex="8" tl="201150041"/>
    <delete from="19347884#0" fromLane="0" to="19347884#1" toLane="0" linkIndex="0" tl="201065302"/>
    <delete from="19350562" fromLane="1" to="19360420#0" toLane="0" linkIndex="6" tl="joinedS_2"/>
    <delete from="19353732#0" fromLane="1" to="19353732#1" toLane="1" linkIndex="2" tl="joinedS_2"/>
    <delete from="19353732#0" fromLane="2" to="19353732#1" toLane="2" linkIndex="3" tl="joinedS_2"/>
    <delete from="19353732#0" fromLane="2" to="19350562" toLane="1" linkIndex="4" tl="joinedS_2"/>
    <delete from="19353732#1" fromLane="1" to="19353732#2" toLane="1" linkIndex="0" tl="201149958"/>
    <delete from="19353732#1" fromLane="2" to="19353732#2" toLane="2" linkIndex="1" tl="201149958"/>
    <delete from="19360411" fromLane="1" to="71472826" toLane="1" linkIndex="5" tl="201150041"/>
    <delete from="19361351#1" fromLane="0" to="617523920#0" toLane="1" linkIndex="3" tl="201207104"/>
    <delete from="19361351#1" fromLane="0" to="617523919#0" toLane="1" linkIndex="4" tl="201207104"/>
    <delete from="19361351#1" fromLane="0" to="-28077357" toLane="1" linkIndex="5" tl="201207104"/>
    <delete from="278720715#6" fromLane="1" to="19359368#0" toLane="1" linkIndex="9" tl="joinedS_5"/>
    <delete from="329995270#10" fromLane="1" to="-492477207#0" toLane="1" linkIndex="4" tl="joinedS_5"/>
    <delete from="440704829" fromLane="1" to="661061486#0" toLane="1" linkIndex="3" tl="joinedS_4"/>
    <delete from="440704829" fromLane="2" to="661061486#0" toLane="2" linkIndex="4" tl="joinedS_4"/>
    <delete from="440717081#0" fromLane="1" to="440717081#1" toLane="1" linkIndex="0" tl="joinedS_3"/>
    <delete from="440717081#0" fromLane="1" to="661061487#1" toLane="2" linkIndex="1" tl="joinedS_3"/>
    <delete from="492477207#0" fromLane="1" to="492477208#0" toLane="1" linkIndex="6" tl="joinedS_5"/>
    <delete from="560828708" fromLane="1" to="-71472826" toLane="1" linkIndex="4" tl="201102463"/>
    <delete from="560828708" fromLane="1" to="610207981" toLane="0" linkIndex="5" tl="201102463"/>
    <delete from="570938685" fromLane="1" to="440717081#0" toLane="1" linkIndex="15" tl="joinedS_3"/>
    <delete from="570938686#3" fromLane="1" to="-570938685" toLane="1" linkIndex="8" tl="joinedS_3"/>
    <delete from="570938686#3" fromLane="1" to="570938686#4" toLane="1" linkIndex="9" tl="joinedS_3"/>
    <delete from="570938686#3" fromLane="2" to="570938686#4" toLane="2" linkIndex="10" tl="joinedS_3"/>
    <delete from="570938686#3" fromLane="2" to="440717081#0" toLane="1" linkIndex="11" tl="joinedS_3"/>
    <delete from="570938686#5" fromLane="1" to="570938686#6" toLane="1" linkIndex="0" tl="5785663193"/>
    <delete from="570938686#5" fromLane="2" to="570938686#6" toLane="2" linkIndex="1" tl="5785663193"/>
    <delete from="570938686#8" fromLane="2" to="71466643#0" toLane="1" linkIndex="7" tl="joinedS_4"/>
    <delete from="570942394#1" fromLane="0" to="570942394#2" toLane="0" linkIndex="0" tl="201270130"/>
    <delete from="570942397" fromLane="1" to="19352909" toLane="1" linkIndex="0" tl="201150041"/>
    <delete from="570942397" fromLane="1" to="71472826" toLane="1" linkIndex="1" tl="201150041"/>
    <delete from="570942397" fromLane="1" to="-19360411" toLane="1" linkIndex="2" tl="201150041"/>
    <delete from="610207982" fromLane="0" to="-71472826" toLane="1" linkIndex="8" tl="201102463"/>
    <delete from="610207982" fromLane="0" to="610207981" toLane="0" linkIndex="9" tl="201102463"/>
    <delete from="610966930#9" fromLane="1" to="610966930#10" toLane="1" linkIndex="0" tl="5785663195"/>
    <delete from="617523920#3" fromLane="1" to="19356099#0" toLane="2" linkIndex="11" tl="457779811"/>
    <delete from="65356877#1" fromLane="1" to="288107045#0" toLane="1" linkIndex="3" tl="201153297"/>
    <delete from="65356877#1" fromLane="1" to="19354558#0" toLane="2" linkIndex="4" tl="201153297"/>
    <delete from="65356877#1" fromLane="1" to="-71474894" toLane="1" linkIndex="5" tl="201153297"/>
    <delete from="661061479" fromLane="1" to="661061481" toLane="1" linkIndex="1" tl="201169073"/>
    <delete from="661061483#0" fromLane="1" to="661061483#1" toLane="1" linkIndex="0" tl="5785663197"/>
    <delete from="661061483#0" fromLane="2" to="661061483#1" toLane="2" linkIndex="1" tl="5785663197"/>
    <delete from="661061484#1" fromLane="1" to="661061484#2" toLane="1" linkIndex="0" tl="5785663196"/>
    <delete from="661061484#1" fromLane="2" to="661061484#2" toLane="2" linkIndex="1" tl="5785663196"/>
    <delete from="661061485#1" fromLane="1" to="71469480#1" toLane="1" linkIndex="8" tl="joinedS_4"/>
    <delete from="661061486#0" fromLane="2" to="661061486#1" toLane="2" linkIndex="18" tl="joinedS_4"/>
    <delete from="661061486#0" fromLane="2" to="71467532#1" toLane="1" linkIndex="19" tl="joinedS_4"/>
    <delete from="661061486#1" fromLane="1" to="661061486#2" toLane="1" linkIndex="0" tl="5785663194"/>
    <delete from="661061486#1" fromLane="2" to="661061486#2" toLane="2" linkIndex="1" tl="5785663194"/>
    <delete from="661061487#0" fromLane="1" to="440717081#1" toLane="1" linkIndex="4" tl="joinedS_3"/>
    <delete from="661061487#0" fromLane="1" to="661061487#1" toLane="1" linkIndex="5" tl="joinedS_3"/>
    <delete from="661061487#0" fromLane="2" to="661061487#1" toLane="2" linkIndex="6" tl="joinedS_3"/>
    <delete from="661061487#0" fromLane="2" to="-440717081#0" toLane="1" linkIndex="7" tl="joinedS_3"/>
    <delete from="71466643#0" fromLane="1" to="661061486#0" toLane="2" linkIndex="1" tl="joinedS_4"/>
    <delete from="71469480#0" fromLane="1" to="71469480#1" toLane="1" linkIndex="11" tl="joinedS_4"/>
    <delete from="71469480#0" fromLane="1" to="19353732#0" toLane="2" linkIndex="12" tl="joinedS_4"/>
    <delete from="71471548#1" fromLane="1" to="71471548#2" toLane="1" linkIndex="0" tl="5785663198"/>
    <delete from="71472729#1" fromLane="1" to="71472729#2" toLane="1" linkIndex="0" tl="201150138"/>
    <delete from="71472729#1" fromLane="2" to="71472729#2" toLane="2" linkIndex="1" tl="201150138"/>
    <delete from="71472729#3" fromLane="1" to="19360420#0" toLane="0" linkIndex="10" tl="joinedS_2"/>
    <delete from="71472729#8" fromLane="2" to="71469480#0" toLane="1" linkIndex="22" tl="joinedS_4"/>
    <delete from="71472826" fromLane="1" to="610207981" toLane="0" linkIndex="10" tl="201102463"/>
    <delete from="71472826" fromLane="1" to="-560828708" toLane="1" linkIndex="11" tl="201102463"/>
    <delete from="71472826" fromLane="1" to="19351906" toLane="1" linkIndex="12" tl="201102463"/>
    <delete from="71472970#2" fromLane="1" to="19352433" toLane="1" linkIndex="3" tl="201128244"/>
    <delete from="71474894" fromLane="1" to="288107045#0" toLane="1" linkIndex="7" tl="201153297"/>
    <delete from="71474894" fromLane="1" to="19354558#0" toLane="2" linkIndex="8" tl="201153297"/>
    <!-- Created Elements -->
    <tlLogic id="201065291" programID="0" offset="0" type="static">
        <phase duration="42" state="gGGrGGGrr"/>
        <phase duration="3" state="yyyryyyrr"/>
        <phase duration="37" state="GrrGrrrGG"/>
        <phase duration="5" state="GrrGrrrrr"/>
        <phase duration="3" state="yrryrrrrr"/>
    </tlLogic>
    <tlLogic id="201119398" programID="0" offset="0" type="static">
        <phase duration="28" state="rrrrGGGGGGgggGrrr"/>
        <phase duration="5" state="rrrrGGGGGGgggrrrr"/>
        <phase duration="3" state="rrrryyyyyygggrrrr"/>
        <phase duration="6" state="rrGGrrrrrrGGGrrrr"/>
        <phase duration="3" state="rryyrrrrrryyyrrrr"/>
        <phase duration="27" state="GGGGrrrrrrGggrGGr"/>
        <phase duration="5" state="GGGGrrrrrrGggrrrr"/>
        <phase duration="3" state="yyyyrrrrrryyyrrrr"/>
        <phase duration="5" state="rrrrrrrrrrrrrGGGG"/>
        <phase duration="5" state="rrrrrrrrrrrrrrrrr"/>
    </tlLogic>
    <tlLogic id="201151425" programID="0" offset="0" type="static">
        <phase duration="32" state="GgrrgGgGGgGrrG"/>
        <phase duration="5" state="GgrrgGgGGgrrrr"/>
        <phase duration="3" state="yyrryyyyyyrrrr"/>
        <phase duration="32" state="rrGgrrrrGgrGrG"/>
        <phase duration="5" state="rrGgrrrrGgrrrr"/>
        <phase duration="3" state="rryyrrrryyrrrr"/>
        <phase duration="5" state="rrrrrrrrrrGGGG"/>
        <phase duration="5" state="rrrrrrrrrrrrrr"/>
    </tlLogic>
    <tlLogic id="850366899" programID="0" offset="0" type="static">
        <phase duration="11" state="GrrrrrrrrrrrrrrrrrrGGGG"/>
        <phase duration="5" state="Grrrrrrrrrrrrrrrrrrrrrr"/>
        <phase duration="5" state="yrrrrrrrrrrrrrrrrrrrrrr"/>
        <phase duration="13" state="rGGggGGGrrGGGrrrGGGrrGr"/>
        <phase duration="5" state="rGGggGGGrrGGGrrrGGrrrrr"/>
        <phase duration="5" state="ryyyyyyyrryyyrrryyrrrrr"/>
        <phase duration="13" state="rGGGGrrrggGGGrrrGGGrGrr"/>
        <phase duration="5" state="rGGGGrrrggGGGrrrGGrrrrr"/>
        <phase duration="5" state="ryyyyrrryyyyyrrryyrrrrr"/>
        <phase duration="13" state="rGGGGrrrrrGGGGGGggGrGGr"/>
        <phase duration="5" state="rGGGGrrrrrGGGGGGggrrrrr"/>
        <phase duration="5" state="ryyyyrrrrryyyyyyyyrrrrr"/>
    </tlLogic>
    <tlLogic id="gneJ24" programID="0" offset="0" type="static">
        <phase duration="68" state="GGGGGgr"/>
        <phase duration="3" state="yyyyygr"/>
        <phase duration="6" state="rrrGGGr"/>
        <phase duration="3" state="rrryyyr"/>
        <phase duration="5" state="rrrrrrG"/>
        <phase duration="5" state="rrrrrrr"/>
    </tlLogic>
    <tlLogic id="gneJ44" programID="0" offset="0" type="static">
        <phase duration="28" state="gGgrrrgGGgrrrrrGrrGrrr"/>
        <phase duration="5" state="gGgrrrgGGgrrrrrrrrrrrr"/>
        <phase duration="3" state="yygrrryyygrrrrrrrrrrrr"/>
        <phase duration="6" state="rrGrrrrrrGrrrrrrrrrrrr"/>
        <phase duration="3" state="rryrrrrrryrrrrrrrrrrrr"/>
        <phase duration="28" state="rrrgGgrrrrgGgGGrGGrrrr"/>
        <phase duration="5" state="rrrgGgrrrrgGgrrrrrrrrr"/>
        <phase duration="3" state="rrryygrrrryygrrrrrrrrr"/>
        <phase duration="6" state="rrrrrGrrrrrrGrrrrrrrrr"/>
        <phase duration="3" state="rrrrryrrrrrryrrrrrrrrr"/>
    </tlLogic>
    <!-- Changed Elements -->
    <tlLogic id="201102463" programID="0" >
        <phase duration="28" state="rrrgGGgrrrrgGGgGGr"/>
        <phase duration="5" state="rrrgGGgrrrrgGGgrrr"/>
        <phase duration="3" state="rrryyygrrrryyygrrr"/>
        <phase duration="6" state="rrrrrrGrrrrrrrGrrr"/>
        <phase duration="3" state="rrrrrryrrrrrrryrrr"/>
        <phase duration="32" state="GGgrrrrGGggrrrrrrr"/>
        <phase duration="3" state="yyyrrrryyyyrrrrrrr"/>
        <phase duration="5" state="rrrrrrrrrrrrrrrGGG"/>
        <phase duration="5" state="rrrrrrrrrrrrrrrrrr"/>
    </tlLogic>
    <tlLogic id="201125350" programID="0" >
        <phase duration="37" state="rrgGGgGr"/>
        <phase duration="5" state="rrgGGgrr"/>
        <phase duration="3" state="rryyyyrr"/>
        <phase duration="42" state="GGGrrrrr"/>
        <phase duration="3" state="yyyrrrrr"/>
        <phase duration="5" state="rrrrrrGG"/>
        <phase duration="5" state="rrrrrrrr"/>
    </tlLogic>
    <tlLogic id="201128244" programID="0" >
        <phase duration="42" state="GGGgrrr"/>
        <phase duration="3" state="yyyyrrr"/>
        <phase duration="37" state="GrrrgGG"/>
        <phase duration="5" state="GrrrgGr"/>
        <phase duration="3" state="yrrryyr"/>
    </tlLogic>
    <tlLogic id="201150041" programID="0" >
        <phase duration="33" state="gGGgrrrgGgrrrrGrG"/>
        <phase duration="5" state="gGGgrrrgGgrrrrrrr"/>
        <phase duration="3" state="yyygrrryygrrrrrrr"/>
        <phase duration="6" state="rrrGrrrrrGrrrrrrr"/>
        <phase duration="3" state="rrryrrrrryrrrrrrr"/>
        <phase duration="32" state="rrrrgGgrrrgGgGrGr"/>
        <phase duration="5" state="rrrrgGgrrrgGgrrrr"/>
        <phase duration="3" state="rrrryyyrrryyyrrrr"/>
    </tlLogic>
    <tlLogic id="201153297" programID="0" >
        <phase duration="28" state="srrsrrrrgGgrr"/>
        <phase duration="10" state="srrsrrrrGGyGr"/>
        <phase duration="28" state="srrGGrrrgGgGr"/>
        <phase duration="3" state="srryyrrryyyrr"/>
        <phase duration="32" state="GGgrrgGgrrrrG"/>
        <phase duration="5" state="yyyrryyyrrrrr"/>
    </tlLogic>
    <tlLogic id="201169073" programID="0" >
        <phase duration="37" state="rrGGGr"/>
        <phase duration="5" state="rrGGrr"/>
        <phase duration="3" state="rryyrr"/>
        <phase duration="37" state="GGrrrG"/>
        <phase duration="5" state="GGrrrr"/>
        <phase duration="3" state="yyrrrr"/>
    </tlLogic>
    <tlLogic id="201207104" programID="0" >
        <phase duration="37" state="gGgrrrgGgrrrrGrG"/>
        <phase duration="5" state="gGgrrrgGgrrrrrrr"/>
        <phase duration="3" state="yyyrrryyyrrrrrrr"/>
        <phase duration="37" state="rrrgGgrrrgGgGrGr"/>
        <phase duration="5" state="rrrgGgrrrgGgrrrr"/>
        <phase duration="3" state="rrryyyrrryyyrrrr"/>
    </tlLogic>
    <tlLogic id="201230688" programID="0" >
        <phase duration="37" state="gGgrrrGGgrrrrrG"/>
        <phase duration="5" state="gGgrrrGGgrrrrrr"/>
        <phase duration="3" state="yyyrrryyyrrrrrr"/>
        <phase duration="37" state="rrrgGgrrrgGgGGr"/>
        <phase duration="5" state="rrrgGgrrrgGgrrr"/>
        <phase duration="3" state="rrryyyrrryyyrrr"/>
    </tlLogic>
    <tlLogic id="457779811" programID="0" >
        <phase duration="13" state="rrrrrrrrrrrGGgGrr"/>
        <phase duration="5" state="rrrrrrrrrrrGGgrrr"/>
        <phase duration="3" state="rrrrrrrrrrryyyrrr"/>
        <phase duration="15" state="gGGgrrrrrrrrrrrGG"/>
        <phase duration="5" state="gGGgrrrrrrrrrrrrr"/>
        <phase duration="3" state="yyyyrrrrrrrrrrrrr"/>
        <phase duration="15" state="rrrrrrrgGGgrrrrGG"/>
        <phase duration="5" state="rrrrrrrgGGgrrrrrr"/>
        <phase duration="3" state="rrrrrrryyyyrrrrrr"/>
        <phase duration="15" state="rrrrgGGrrrrrrrGrr"/>
        <phase duration="5" state="rrrrgGGrrrrrrrrrr"/>
        <phase duration="3" state="rrrryyyrrrrrrrrrr"/>
    </tlLogic>
    <tlLogic id="joinedS_2" programID="0" >
        <phase duration="23" state="rrGGGgggrrGGGGGrrrrr"/>
        <phase duration="5" state="rrGGGgggrrGGGGrrrrrr"/>
        <phase duration="3" state="rryyygggrryyyyrrrrrr"/>
        <phase duration="6" state="rrrrrGGGrrrrrrrrrrrr"/>
        <phase duration="3" state="rrrrryyyrrrrrrrrrrrr"/>
        <phase duration="23" state="gGrrrgGggGrrrrrGGGrG"/>
        <phase duration="5" state="gGrrrgGggGrrrrrrrrrr"/>
        <phase duration="3" state="yyrrrgygyyrrrrrrrrrr"/>
        <phase duration="6" state="rrrrrGrGrrrrrrrrrrrr"/>
        <phase duration="3" state="rrrrryryrrrrrrrrrrrr"/>
        <phase duration="5" state="rrrrrrrrrrrrrrGGGGGG"/>
        <phase duration="5" state="rrrrrrrrrrrrrrrrrrrr"/>
    </tlLogic>
    <tlLogic id="joinedS_4" programID="0" >
        <phase duration="68" state="ggGGGGGGGgggGGGrr"/>
        <phase duration="3" state="ggyyyyyyygggyyyrr"/>
        <phase duration="6" state="GGrrrrGGGgggGGGrr"/>
        <phase duration="3" state="yyrrrryyyyyyyyyrr"/>
        <phase duration="5" state="rrrrrrrrrrrrrrrGG"/>
        <phase duration="5" state="rrrrrrrrrrrrrrrrr"/>
    </tlLogic>
    <tlLogic id="joinedS_5" programID="0" >
        <phase duration="33" state="GGrrrOOOGGgrGr"/>
        <phase duration="5" state="GGrrrOOOGGgrrr"/>
        <phase duration="3" state="yyrrrOOOyyyrrr"/>
        <phase duration="32" state="rrgGGOOOrrrGrG"/>
        <phase duration="5" state="rrgGGOOOrrrrrr"/>
        <phase duration="3" state="rryyyOOOrrrrrr"/>
    </tlLogic>
    <!-- Created Elements -->
    <connection from="-19351906.115" fromLane="1" to="-71472826" toLane="1" linkIndex="0" tl="201102463"/>
    <connection from="-19351906.115" fromLane="2" to="610207981" toLane="1" linkIndex="1" tl="201102463"/>
    <connection from="-19351906.115" fromLane="2" to="-560828708" toLane="2" linkIndex="2" tl="201102463"/>
    <connection from="-19352433" fromLane="1" to="-71472970#2" toLane="1" linkIndex="4" tl="201128244"/>
    <connection from="-19352433" fromLane="1" to="65356877#0" toLane="1" linkIndex="5" tl="201128244"/>
    <connection from="-19352484#0" fromLane="1" to="19356382#0" toLane="2" linkIndex="6" tl="457779811"/>
    <connection from="-19352909" fromLane="1" to="71472826" toLane="2" linkIndex="10" tl="201150041"/>
    <connection from="-19353810#0" fromLane="1" to="-19356382#19" toLane="1" linkIndex="2" tl="201151425"/>
    <connection from="-19353810#0" fromLane="1" to="19356382#20" toLane="1" linkIndex="3" tl="201151425"/>
    <connection from="-19354558#0" fromLane="2" to="288107045#0" toLane="0" linkIndex="10" tl="201153297"/>
    <connection from="-19356099#0" fromLane="2" to="19356382#0" toLane="2" linkIndex="2" tl="457779811"/>
    <connection from="-19356382#0.103" fromLane="1" to="19352484#0" toLane="1" linkIndex="7" tl="457779811"/>
    <connection from="-19356382#0.103" fromLane="1" to="19356099#0" toLane="1" linkIndex="8" tl="457779811"/>
    <connection from="-19356382#0.103" fromLane="2" to="19356099#0" toLane="2" linkIndex="9" tl="457779811"/>
    <connection from="-19356382#0.103" fromLane="2" to="-617523920#3" toLane="1" linkIndex="10" tl="457779811"/>
    <connection from="-19356382#19" fromLane="1" to="-19356382#18" toLane="1" linkIndex="8" tl="201151425"/>
    <connection from="-19356382#19" fromLane="1" to="19359858" toLane="1" linkIndex="9" tl="201151425"/>
    <connection from="-19356382#20" fromLane="1" to="19353810#0" toLane="1" linkIndex="4" tl="201151425"/>
    <connection from="-19356382#20" fromLane="1" to="-19356382#19" toLane="1" linkIndex="5" tl="201151425"/>
    <connection from="-19360420#0" fromLane="1" to="71472729#4" toLane="1" linkIndex="8" tl="joinedS_2"/>
    <connection from="-19360420#0" fromLane="1" to="-19350562" toLane="1" linkIndex="9" tl="joinedS_2"/>
    <connection from="-440717081#1" fromLane="1" to="-570938685" toLane="1" linkIndex="4" tl="gneJ44"/>
    <connection from="-440717081#1" fromLane="2" to="570938686#4" toLane="1" linkIndex="5" tl="gneJ44"/>
    <connection from="-492477207#0" fromLane="0" to="19359368#0" toLane="0" linkIndex="7" tl="joinedS_5"/>
    <connection from="-492477207#1" fromLane="1" to="-492477207#0" toLane="0" linkIndex="1" tl="joinedS_5"/>
    <connection from="-570942394#2" fromLane="1" to="-570942394#1" toLane="0" linkIndex="1" tl="201270130"/>
    <connection from="-65356877#0.260" fromLane="0" to="19352433" toLane="0" linkIndex="0" tl="201128244"/>
    <connection from="-65356877#0.260" fromLane="1" to="-71472970#2" toLane="1" linkIndex="1" tl="201128244"/>
    <connection from="-71472826.114" fromLane="1" to="-19360411" toLane="1" linkIndex="7" tl="201150041"/>
    <connection from="-71472826.114" fromLane="2" to="-570942397" toLane="1" linkIndex="8" tl="201150041"/>
    <connection from="-71472826.114" fromLane="3" to="19352909" toLane="1" linkIndex="9" tl="201150041"/>
    <connection from="19347884#0" fromLane="1" to="19347884#2" toLane="1" linkIndex="3" tl="201065291"/>
    <connection from="19347884#2" fromLane="1" to="71472729#3" toLane="2" linkIndex="0" tl="201065291"/>
    <connection from="19347965" fromLane="1" to="71472729#0" toLane="1" linkIndex="0" tl="850366899"/>
    <connection from="19350562" fromLane="1" to="19360420#0" toLane="1" linkIndex="6" tl="joinedS_2"/>
    <connection from="19353732#0.207" fromLane="1" to="19353732#1" toLane="1" linkIndex="2" tl="joinedS_2"/>
    <connection from="19353732#0.207" fromLane="2" to="19353732#1" toLane="2" linkIndex="3" tl="joinedS_2"/>
    <connection from="19353732#0.207" fromLane="2" to="19350562" toLane="1" linkIndex="4" tl="joinedS_2"/>
    <connection from="19353732#2" fromLane="1" to="19353732#3" toLane="1" linkIndex="4" tl="201065291"/>
    <connection from="19353732#2" fromLane="2" to="19353732#3" toLane="2" linkIndex="5" tl="201065291"/>
    <connection from="19353732#2" fromLane="2" to="19347884#2" toLane="1" linkIndex="6" tl="201065291"/>
    <connection from="19356382#18" fromLane="1" to="19359858" toLane="1" linkIndex="6" tl="201151425"/>
    <connection from="19356382#18" fromLane="1" to="19356382#19" toLane="1" linkIndex="7" tl="201151425"/>
    <connection from="19356382#19" fromLane="1" to="19356382#20" toLane="1" linkIndex="0" tl="201151425"/>
    <connection from="19356382#19" fromLane="1" to="19353810#0" toLane="1" linkIndex="1" tl="201151425"/>
    <connection from="19360411" fromLane="1" to="71472826" toLane="2" linkIndex="6" tl="201150041"/>
    <connection from="278433716#9" fromLane="1" to="661061481" toLane="2" linkIndex="1" tl="201169073"/>
    <connection from="278720715#6" fromLane="2" to="492477207#0" toLane="2" linkIndex="9" tl="joinedS_5"/>
    <connection from="278720715#6" fromLane="2" to="19359368#0" toLane="0" linkIndex="10" tl="joinedS_5"/>
    <connection from="329995270#0" fromLane="1" to="329995270#1" toLane="1" linkIndex="10" tl="201119398"/>
    <connection from="329995270#0" fromLane="2" to="570938686#7" toLane="1" linkIndex="11" tl="201119398"/>
    <connection from="329995270#0" fromLane="2" to="570938686#7" toLane="2" linkIndex="12" tl="201119398"/>
    <connection from="329995270#10" fromLane="1" to="-492477207#0" toLane="0" linkIndex="4" tl="joinedS_5"/>
    <connection from="440704829" fromLane="2" to="661061486#0" toLane="1" linkIndex="3" tl="joinedS_4"/>
    <connection from="492477207#0" fromLane="2" to="492477208#0" toLane="1" linkIndex="6" tl="joinedS_5"/>
    <connection from="560828708" fromLane="2" to="-71472826" toLane="1" linkIndex="4" tl="201102463"/>
    <connection from="560828708" fromLane="3" to="-71472826" toLane="2" linkIndex="5" tl="201102463"/>
    <connection from="560828708" fromLane="4" to="610207981" toLane="1" linkIndex="6" tl="201102463"/>
    <connection from="570938685" fromLane="2" to="440717081#1" toLane="1" linkIndex="11" tl="gneJ44"/>
    <connection from="570938685" fromLane="3" to="661061487#1" toLane="2" linkIndex="12" tl="gneJ44"/>
    <connection from="570938686#3.60" fromLane="1" to="-570938685" toLane="1" linkIndex="0" tl="gneJ44"/>
    <connection from="570938686#3.60" fromLane="2" to="570938686#4" toLane="1" linkIndex="1" tl="gneJ44"/>
    <connection from="570938686#3.60" fromLane="3" to="440717081#1" toLane="1" linkIndex="2" tl="gneJ44"/>
    <connection from="570938686#6" fromLane="1" to="329995270#1" toLane="1" linkIndex="7" tl="201119398"/>
    <connection from="570938686#6" fromLane="1" to="570938686#7" toLane="1" linkIndex="8" tl="201119398"/>
    <connection from="570938686#6" fromLane="2" to="570938686#7" toLane="2" linkIndex="9" tl="201119398"/>
    <connection from="570938686#8" fromLane="3" to="71466643#0" toLane="1" linkIndex="6" tl="joinedS_4"/>
    <connection from="570942394#1" fromLane="0" to="570942394#2" toLane="1" linkIndex="0" tl="201270130"/>
    <connection from="570942397.42" fromLane="0" to="19352909" toLane="1" linkIndex="0" tl="201150041"/>
    <connection from="570942397.42" fromLane="0" to="71472826" toLane="1" linkIndex="1" tl="201150041"/>
    <connection from="570942397.42" fromLane="1" to="71472826" toLane="2" linkIndex="2" tl="201150041"/>
    <connection from="570942397.42" fromLane="1" to="-19360411" toLane="1" linkIndex="3" tl="201150041"/>
    <connection from="610207982" fromLane="0" to="-71472826" toLane="2" linkIndex="9" tl="201102463"/>
    <connection from="610207982" fromLane="0" to="610207981" toLane="1" linkIndex="10" tl="201102463"/>
    <connection from="610966930#9" fromLane="1" to="661061486#3" toLane="1" linkIndex="0" tl="201119398"/>
    <connection from="610966930#9" fromLane="1" to="661061486#3" toLane="2" linkIndex="1" tl="201119398"/>
    <connection from="610966930#9" fromLane="1" to="329995270#0" toLane="1" linkIndex="2" tl="201119398"/>
    <connection from="610966930#9" fromLane="2" to="329995270#0" toLane="2" linkIndex="3" tl="201119398"/>
    <connection from="617523920#3" fromLane="2" to="19356099#0" toLane="2" linkIndex="13" tl="457779811"/>
    <connection from="65356877#1" fromLane="1" to="288107045#0" toLane="0" linkIndex="3" tl="201153297"/>
    <connection from="65356877#1" fromLane="1" to="19354558#0" toLane="1" linkIndex="4" tl="201153297"/>
    <connection from="661061479.52" fromLane="1" to="661061481" toLane="1" linkIndex="2" tl="201169073"/>
    <connection from="661061479.52" fromLane="2" to="661061481" toLane="2" linkIndex="3" tl="201169073"/>
    <connection from="661061483#1" fromLane="1" to="71471500#1" toLane="1" linkIndex="5" tl="850366899"/>
    <connection from="661061483#1" fromLane="1" to="661061483#2" toLane="1" linkIndex="6" tl="850366899"/>
    <connection from="661061483#1" fromLane="2" to="661061483#2" toLane="2" linkIndex="7" tl="850366899"/>
    <connection from="661061483#2" fromLane="1" to="661061483#3" toLane="1" linkIndex="10" tl="850366899"/>
    <connection from="661061483#2" fromLane="2" to="661061483#3" toLane="2" linkIndex="11" tl="850366899"/>
    <connection from="661061483#2" fromLane="2" to="71471548#3" toLane="1" linkIndex="12" tl="850366899"/>
    <connection from="661061483#3" fromLane="1" to="71472729#0" toLane="1" linkIndex="1" tl="850366899"/>
    <connection from="661061483#3" fromLane="2" to="71472729#0" toLane="2" linkIndex="2" tl="850366899"/>
    <connection from="661061484#2" fromLane="1" to="661061484#4" toLane="1" linkIndex="13" tl="850366899"/>
    <connection from="661061484#2" fromLane="2" to="661061484#4" toLane="2" linkIndex="14" tl="850366899"/>
    <connection from="661061484#2" fromLane="3" to="71471500#0" toLane="1" linkIndex="15" tl="850366899"/>
    <connection from="661061485#1" fromLane="1" to="71469480#1" toLane="0" linkIndex="0" tl="gneJ24"/>
    <connection from="661061486#0" fromLane="1" to="661061486#1" toLane="2" linkIndex="13" tl="joinedS_4"/>
    <connection from="661061486#0" fromLane="1" to="71467532#1" toLane="1" linkIndex="14" tl="joinedS_4"/>
    <connection from="661061486#2" fromLane="1" to="661061486#3" toLane="1" linkIndex="4" tl="201119398"/>
    <connection from="661061486#2" fromLane="1" to="661061486#3" toLane="2" linkIndex="5" tl="201119398"/>
    <connection from="661061486#2" fromLane="1" to="329995270#0" toLane="2" linkIndex="6" tl="201119398"/>