<?xml version="1.0" encoding="UTF-8"?>
<nodes version="1.3" xmlns:xsi="http://www.w3.org/2001/XMLSchema-instance" xsi:noNamespaceSchemaLocation="http://sumo.dlr.de/xsd/nodes_file.xsd">
    <!-- Deleted Elements -->
    <delete id="201065302"/>
    <delete id="201120882"/>
    <delete id="201139092"/>
    <delete id="201141935"/>
    <delete id="201149895"/>
    <delete id="201149993"/>
    <delete id="201150138"/>
    <delete id="201151614"/>
    <delete id="201176627"/>
    <delete id="201191092"/>
    <delete id="3754935836"/>
    <delete id="5002285096"/>
    <delete id="5785663195"/>
    <delete id="5785663196"/>
    <delete id="6247337294"/>
    <delete id="850365418"/>
    <!-- Created Elements -->
    <node id="cluster_201139092_3754935836" type="priority_stop" x="8958.56" y="3923.34"/>
    <node id="cluster_201141935_201191092" type="priority" x="9089.42" y="5213.73"/>
    <node id="cluster_201149895_6247337294" controlledInner="661061483#2 661061483#3 71471500#0 71471548#3" tl="850366899" type="traffic_light" x="8297.02" y="4379.71"/>
    <node id="cluster_201149993_850365418" tl="gneJ24" type="traffic_light" x="8439.95" y="3833.72"/>
    <node id="cluster_201151614_201176627" type="priority_stop" x="9090.20" y="992.24"/>
    <node id="cluster_gneJ14_gneJ15_gneJ16" type="right_before_left" x="8279.90" y="4454.38"/>
    <node id="cluster_gneJ43_gneJ44" type="priority" x="8978.63" y="3588.51"/>
    <node id="gneJ0" type="priority" x="8760.60" y="4621.95"/>
    <node id="gneJ1" type="priority" x="8789.62" y="4653.44"/>
    <node id="gneJ10" type="priority" x="8331.46" y="4963.09"/>
    <node id="gneJ11" type="priority" x="8265.91" y="4686.88"/>
    <node id="gneJ12" type="priority" x="8265.82" y="4592.28"/>
    <node id="gneJ13" type="priority" x="8269.94" y="4543.40"/>
    <node id="gneJ18" type="priority" x="8317.46" y="4489.49"/>
    <node id="gneJ22" type="priority" x="8329.37" y="4197.66"/>
    <node id="gneJ23" type="priority" x="8436.02" y="4034.14"/>
    <node id="gneJ25" type="priority" x="8527.97" y="3786.71"/>
    <node id="gneJ26" type="priority" x="8941.44" y="3692.00"/>
    <node id="gneJ27" type="priority" x="8729.41" y="3744.03"/>
    <node id="gneJ3" type="zipper" x="9625.86" y="6118.02"/>
    <node id="gneJ30" type="priority" x="8978.85" y="3608.49"/>
    <node id="gneJ31" type="priority" x="9068.17" y="3679.02"/>
    <node id="gneJ34" type="priority" x="9188.52" y="3653.12"/>
    <node id="gneJ35" type="priority" x="9183.72" y="3632.62"/>
    <node id="gneJ36" type="priority" x="9278.97" y="3622.98"/>
    <node id="gneJ37" type="priority" x="9622.13" y="3746.58"/>
    <node id="gneJ38" type="priority" x="9796.57" y="3811.60"/>
    <node id="gneJ39" type="priority" x="9926.90" y="3871.78"/>
    <node id="gneJ40" type="priority" x="10090.63" y="4007.89"/>
    <node id="gneJ41" type="priority" x="10481.93" y="4247.51"/>
    <node id="gneJ9" type="priority" x="8619.76" y="3572.67"/>
    <!-- Changed Elements -->
    <node id="201059342" type="priority_stop"/>
    <node id="201060289" type="priority_stop"/>
    <node id="201062403" type="priority_stop"/>
    <node id="201065291" controlledInner="19347884#2" tl="201065291" type="traffic_light" x="8410.83" y="4128.06"/>
    <node id="201065298" controlledInner="19347884#2" tl="201065291" type="traffic_light"/>
    <node id="201066534" controlledInner="661061483#2 661061483#3 71471500#0 71471548#3" tl="850366899" type="traffic_light"/>
    <node id="201075725" type="priority_stop"/>
    <node id="201092940" type="priority_stop"/>
    <node id="201096371" type="priority_stop"/>
    <node id="201108097" type="allway_stop"/>
    <node id="201114833" type="priority_stop"/>
    <node id="201115467" type="priority_stop"/>
    <node id="201115802" type="priority_stop"/>
    <node id="201115822" type="priority_stop"/>
    <node id="201119257" type="dead_end"/>
    <node id="201119337" type="priority_stop"/>
    <node id="201119341" type="priority_stop"/>
    <node id="201119343" type="priority_stop"/>
    <node id="201119369" type="priority_stop"/>
    <node id="201119393" type="priority_stop"/>
    <node id="201119398" controlledInner="329995270#0" tl="201119398" type="traffic_light"/>
    <node id="201119416" controlledInner="661061486#0 71466643#0 71466643#1 71467532#0"/>
    <node id="201119440" controlledInner="661061486#0 71466643#0 71466643#1 71467532#0"/>
    <node id="201119467" controlledInner="329995270#0" tl="201119398" type="traffic_light"/>
    <node id="201119470" type="priority_stop"/>
    <node id="201119483" type="traffic_light_right_on_red"/>
    <node id="201119485" type="priority_stop"/>
    <node id="201119489" type="priority_stop"/>
    <node id="201119529" type="priority_stop"/>
    <node id="201119531" type="priority_stop"/>
    <node id="201119534" type="priority_stop"/>
    <node id="201120395" type="priority_stop"/>
    <node id="201120696" type="priority_stop"/>
    <node id="201120706" type="priority_stop"/>
    <node id="201120877" type="priority_stop"/>
    <node id="201120881" type="priority_stop"/>
    <node id="201120886" type="priority_stop"/>
    <node id="201120917" type="priority_stop"/>
    <node id="201120925" type="priority_stop"/>
    <node id="201120932" type="allway_stop"/>
    <node id="201120936" type="priority_stop"/>
    <node id="201120944" type="priority_stop"/>
    <node id="201120947" type="priority_stop"/>
    <node id="201120957" type="priority_stop"/>
    <node id="201120974" type="priority_stop"/>
    <node id="201120978" type="priority_stop"/>
    <node id="201120990" type="priority_stop"/>
    <node id="201120994" type="priority_stop"/>
    <node id="201121006" type="priority_stop"/>
    <node id="201121009" type="priority_stop"/>
    <node id="201121017" type="priority_stop"/>
    <node id="201121018" type="priority_stop"/>
    <node id="201121022" type="priority_stop"/>
    <node id="201121029" type="priority_stop"/>
    <node id="201121034" type="priority_stop"/>
    <node id="201121043" type="priority_stop"/>
    <node id="201121046" type="priority_stop"/>
    <node id="201121049" type="allway_stop"/>
    <node id="201121058" type="priority_stop"/>
    <node id="201121061" type="priority_stop"/>
    <node id="201121399" type="priority_stop"/>
    <node id="201124199" type="priority_stop"/>
    <node id="201128293" type="priority_stop"/>
    <node id="201128592" type="priority_stop"/>
    <node id="201131737" type="priority_stop"/>
    <node id="201131739" type="priority_stop"/>
    <node id="201131741" type="priority_stop"/>
    <node id="201136372" type="priority_stop"/>
    <node id="201136375" type="priority_stop"/>
    <node id="201136379" type="priority_stop"/>
    <node id="201136383" type="priority_stop"/>
    <node id="201136392" type="priority_stop"/>
    <node id="201136397" type="priority_stop"/>
    <node id="201136408" type="priority_stop"/>
    <node id="201136421" type="priority_stop"/>
    <node id="201136442" type="priority_stop"/>
    <node id="201138548" type="priority_stop"/>
    <node id="201143503" type="priority_stop"/>
    <node id="201143727" type="priority_stop"/>
    <node id="201149369" type="priority_stop"/>
    <node id="201149374" type="priority_stop"/>
    <node id="201149958" type="priority"/>
    <node id="201150039" type="priority_stop"/>
    <node id="201150054" controlledInner="661061483#2 661061483#3 71471500#0 71471548#3" tl="850366899" type="traffic_light"/>
    <node id="201150163" type="priority_stop"/>
    <node id="201150167" type="priority_stop"/>
    <node id="201151425" controlledInner="-19356382#19 19356382#19" tl="201151425" type="traffic_light"/>
    <node id="201153737" x="8836.96" y="4726.00"/>
    <node id="201155428" type="priority_stop"/>
    <node id="201158441" type="priority_stop"/>
    <node id="201159186" type="priority_stop"/>
    <node id="201159678" type="priority_stop"/>
    <node id="201159895" type="priority_stop"/>
    <node id="201161142" type="priority_stop"/>
    <node id="201161146" type="priority_stop"/>
    <node id="201161151" type="priority_stop"/>
    <node id="201161155" type="priority_stop"/>
    <node id="201161163" type="priority_stop"/>
    <node id="201161167" type="priority_stop"/>
    <node id="201161173" type="priority_stop"/>
    <node id="201161175" type="priority_stop"/>
    <node id="201161179" type="priority_stop"/>
    <node id="201161218" type="priority_stop"/>
    <node id="201165599" type="priority_stop"/>
    <node id="201166674" type="priority_stop"/>
    <node id="201167053" type="priority_stop"/>
    <node id="201168298" type="priority_stop"/>
    <node id="201174943" type="priority_stop"/>
    <node id="201176864" type="priority_stop"/>
    <node id="201177328" type="priority_stop"/>
    <node id="201180654" type="priority_stop"/>
    <node id="201183087" type="priority_stop"/>
    <node id="201189228" type="priority_stop"/>
    <node id="201190792" type="priority_stop"/>
    <node id="201191022" type="priority_stop"/>
    <node id="201191040" type="priority_stop"/>
    <node id="201191065" type="priority_stop"/>
    <node id="201191072" type="priority_stop"/>
    <node id="201191084" type="priority_stop"/>
    <node id="201191088" type="priority_stop"/>
    <node id="201191089" type="priority_stop"/>
    <node id="201191096" controlledInner="-19356382#19 19356382#19" tl="201151425" type="traffic_light"/>
    <node id="201191105" type="priority_stop"/>
    <node id="201191121" type="priority_stop"/>
    <node id="201191132" type="priority_stop"/>
    <node id="201191136" type="priority_stop"/>
    <node id="201191145" type="priority_stop"/>
    <node id="201191149" type="priority_stop"/>
    <node id="201191154" type="priority_stop"/>
    <node id="201191158" type="priority_stop"/>
    <node id="201191166" type="priority_stop"/>
    <node id="201191172" type="priority_stop"/>
    <node id="201191956" type="priority_stop"/>
    <node id="201192137" type="priority_stop"/>
    <node id="201192949" type="priority_stop"/>
    <node id="201196411" type="priority_stop"/>
    <node id="201200647" type="priority_stop"/>
    <node id="201202361" type="priority_stop"/>
    <node id="201204796" type="priority_stop"/>
    <node id="201207563" type="priority_stop"/>
    <node id="201207664" type="priority_stop"/>
    <node id="201212703" type="priority_stop"/>
    <node id="201217265" type="priority_stop"/>
    <node id="201225918" type="priority_stop"/>
    <node id="201225952" type="priority_stop"/>
    <node id="201225965" type="priority_stop"/>
    <node id="201225968" type="priority_stop"/>
    <node id="201226040" type="priority_stop"/>
    <node id="201228179" type="priority_stop"/>
    <node id="201237106" type="priority_stop"/>
    <node id="201247505" type="priority_stop"/>
    <node id="201250262" type="priority_stop"/>
    <node id="201250629" type="priority_stop"/>
    <node id="201250643" type="priority_stop"/>
    <node id="201250665" type="priority_stop"/>
    <node id="201253073" type="priority_stop"/>
    <node id="2667703794" controlledInner="661061486#0 71466643#0 71466643#1 71467532#0"/>
    <node id="3637165383" x="8268.80" y="5411.39"/>
    <node id="5785663193" type="priority" x="8617.38" y="3767.38"/>
    <node id="5785663194" type="priority"/>
    <node id="5785663197" type="priority"/>
    <node id="5785663198" type="priority"/>
    <node id="850365156" controlledInner="661061486#0 71466643#0 71466643#1 71467532#0"/>
    <node id="850366899" controlledInner="661061483#2 661061483#3 71471500#0 71471548#3" tl="850366899" type="traffic_light"/>
</nodes>
