<?xml version="1.0" encoding="UTF-8"?>
<connections version="1.3" xmlns:xsi="http://www.w3.org/2001/XMLSchema-instance" xsi:noNamespaceSchemaLocation="http://sumo.dlr.de/xsd/connections_file.xsd">
    <!-- Deleted Elements -->
    <delete from="-19347482" fromLane="0" to="-19356382#12" toLane="1"/>
    <delete from="-19347482" fromLane="0" to="19356382#13" toLane="1"/>
    <delete from="-19347880" fromLane="0" to="19353499#1" toLane="0"/>
    <delete from="-19350493" fromLane="0" to="19351916#2" toLane="2"/>
    <delete from="-19350571#0" fromLane="0" to="-19360420#0" toLane="0"/>
    <delete from="-19351696#0" fromLane="0" to="-440717065#1" toLane="1"/>
    <delete from="-19351696#0" fromLane="0" to="19354566#0" toLane="0"/>
    <delete from="-19351696#0" fromLane="0" to="440717065#2" toLane="1"/>
    <delete from="-19351696#1" fromLane="0" to="-19351696#0" toLane="0"/>
    <delete from="-19351820" fromLane="0" to="-19357057#0" toLane="0"/>
    <delete from="-19351850" fromLane="0" to="-19357506#0" toLane="0"/>
    <delete from="-19351857#14" fromLane="1" to="19361060#11" toLane="0"/>
    <delete from="-19351857#14" fromLane="1" to="-19351857#13" toLane="1"/>
    <delete from="-19351857#14" fromLane="1" to="-19361060#10" toLane="0"/>
    <delete from="-19351857#15" fromLane="1" to="-19351857#14" toLane="1"/>
    <delete from="-19351906" fromLane="1" to="-71472826" toLane="1"/>
    <delete from="-19351906" fromLane="1" to="610207981" toLane="0"/>
    <delete from="-19351906" fromLane="1" to="-560828708" toLane="1"/>
    <delete from="-19351910#0" fromLane="0" to="-19356224#1" toLane="0"/>
    <delete from="-19351910#0" fromLane="0" to="19356224#2" toLane="0"/>
    <delete from="-19351928" fromLane="2" to="19357408#0" toLane="2"/>
    <delete from="-19351995" fromLane="0" to="19357686" toLane="0"/>
    <delete from="-19352017#0" fromLane="1" to="-19355081#3" toLane="0"/>
    <delete from="-19352017#1" fromLane="1" to="19355750#0" toLane="0"/>
    <delete from="-19352017#2" fromLane="1" to="19357400" toLane="0"/>
    <delete from="-19352285#0" fromLane="1" to="19354745#0" toLane="0"/>
    <delete from="-19352285#2" fromLane="1" to="-19358038#0" toLane="0"/>
    <delete from="-19352374#0" fromLane="0" to="-19353551#10" toLane="0"/>
    <delete from="-19352374#0" fromLane="0" to="19358140" toLane="0"/>
    <delete from="-19352433" fromLane="0" to="-71472970#2" toLane="1"/>
    <delete from="-19352433" fromLane="0" to="65356877#0" toLane="1"/>
    <delete from="-19352447" fromLane="0" to="-19356382#28" toLane="1"/>
    <delete from="-19352447" fromLane="0" to="19356382#29" toLane="1"/>
    <delete from="-19352484#0" fromLane="1" to="19356382#0" toLane="1"/>
    <delete from="-19352671#0" fromLane="0" to="-492477207#3" toLane="1"/>
    <delete from="-19352671#0" fromLane="0" to="492477207#4" toLane="1"/>
    <delete from="-19352671#1" fromLane="0" to="-19352671#0" toLane="0"/>
    <delete from="-19352671#1" fromLane="0" to="19360046#2" toLane="0"/>
    <delete from="-19352768" fromLane="0" to="-19360459#0" toLane="0"/>
    <delete from="-19352871#0" fromLane="0" to="19358688#1" toLane="0"/>
    <delete from="-19352871#1" fromLane="0" to="-19357105" toLane="0"/>
    <delete from="-19352893#0" fromLane="0" to="329995331#6" toLane="1"/>
    <delete from="-19352901#0" fromLane="0" to="-19356224#2" toLane="0"/>
    <delete from="-19352901#0" fromLane="0" to="19356224#3" toLane="0"/>
    <delete from="-19352909" fromLane="1" to="71472826" toLane="1"/>
    <delete from="-19353068" fromLane="0" to="19361431" toLane="0"/>
    <delete from="-19353092#0" fromLane="0" to="-19356382#23" toLane="1"/>
    <delete from="-19353092#0" fromLane="0" to="19356382#24" toLane="1"/>
    <delete from="-19353092#1" fromLane="0" to="-19353092#0" toLane="0"/>
    <delete from="-19353264#0" fromLane="0" to="19350493" toLane="0"/>
    <delete from="-19353316" fromLane="0" to="19354319" toLane="0"/>
    <delete from="-19353381" fromLane="0" to="-19358588#0" toLane="0"/>
    <delete from="-19353381" fromLane="0" to="19358588#1" toLane="0"/>
    <delete from="-19353499#1" fromLane="0" to="-19353499#0" toLane="0"/>
    <delete from="-19353499#1" fromLane="0" to="19347880" toLane="0"/>
    <delete from="-19353551#0" fromLane="0" to="19353686#2" toLane="1"/>
    <delete from="-19353551#0" fromLane="0" to="-19353686#1" toLane="1"/>
    <delete from="-19353551#1" fromLane="0" to="-19353551#0" toLane="0"/>
    <delete from="-19353551#10" fromLane="0" to="-19358441" toLane="0"/>
    <delete from="-19353551#10" fromLane="0" to="-19353551#9" toLane="0"/>
    <delete from="-19353551#2" fromLane="0" to="560756425" toLane="0"/>
    <delete from="-19353551#2" fromLane="0" to="-19353551#1" toLane="0"/>
    <delete from="-19353551#3" fromLane="0" to="19359495#0" toLane="0"/>
    <delete from="-19353551#3" fromLane="0" to="-19353551#2" toLane="0"/>
    <delete from="-19353551#4" fromLane="0" to="-19353551#3" toLane="0"/>
    <delete from="-19353551#5" fromLane="0" to="19356062#0" toLane="0"/>
    <delete from="-19353551#5" fromLane="0" to="-19353551#4" toLane="0"/>
    <delete from="-19353551#5" fromLane="0" to="-19355437" toLane="0"/>
    <delete from="-19353551#6" fromLane="0" to="-19353551#5" toLane="0"/>
    <delete from="-19353551#7" fromLane="0" to="-19353551#6" toLane="0"/>
    <delete from="-19353551#8" fromLane="0" to="19351859#0" toLane="0"/>
    <delete from="-19353551#8" fromLane="0" to="-19353551#7" toLane="0"/>
    <delete from="-19353551#9" fromLane="0" to="-19353551#8" toLane="0"/>
    <delete from="-19353551#9" fromLane="0" to="-19357548" toLane="0"/>
    <delete from="-19353591#1" fromLane="0" to="-19357262#0" toLane="0"/>
    <delete from="-19353686#1" fromLane="1" to="492477204" toLane="0"/>
    <delete from="-19353686#2" fromLane="1" to="19353551#0" toLane="0"/>
    <delete from="-19353810#0" fromLane="0" to="-19356382#19" toLane="1"/>
    <delete from="-19353810#0" fromLane="0" to="19356382#20" toLane="1"/>
    <delete from="-19353810#1" fromLane="0" to="-19353810#0" toLane="0"/>
    <delete from="-19353819" fromLane="0" to="19360222#5" toLane="1"/>
    <delete from="-19354056#0" fromLane="0" to="-19358587#0" toLane="0"/>
    <delete from="-19354057#1" fromLane="0" to="-19359704" toLane="0"/>
    <delete from="-19354057#1" fromLane="0" to="-19354057#0" toLane="0"/>
    <delete from="-19354125" fromLane="0" to="-19361235#0" toLane="0"/>
    <delete from="-19354242#1" fromLane="1" to="-19356269" toLane="0"/>
    <delete from="-19354306" fromLane="0" to="-19351696#0" toLane="0"/>
    <delete from="-19354319" fromLane="0" to="19353316" toLane="0"/>
    <delete from="-19354319" fromLane="0" to="261166138#9" toLane="1"/>
    <delete from="-19354328" fromLane="0" to="-19359071#1" toLane="0"/>
    <delete from="-19354328" fromLane="0" to="19359071#2" toLane="0"/>
    <delete from="-19354372#15" fromLane="0" to="617265279#11" toLane="1"/>
    <delete from="-19354558#0" fromLane="1" to="288107045#0" toLane="1"/>
    <delete from="-19354558#1" fromLane="1" to="358897200" toLane="0"/>
    <delete from="-19354558#1" fromLane="1" to="-19354558#0" toLane="1"/>
    <delete from="-19354956#0" fromLane="1" to="-19356535#0" toLane="0"/>
    <delete from="-19354956#2" fromLane="1" to="-19347482" toLane="0"/>
    <delete from="-19355081#3" fromLane="0" to="-19355081#2" toLane="0"/>
    <delete from="-19355081#3" fromLane="0" to="19361056" toLane="0"/>
    <delete from="-19355289#0" fromLane="0" to="19356382#10" toLane="1"/>
    <delete from="-19355289#0" fromLane="0" to="-19356382#9" toLane="1"/>
    <delete from="-19355289#1" fromLane="0" to="-19355289#0" toLane="0"/>
    <delete from="-19355395#3" fromLane="0" to="92384042#6" toLane="2"/>
    <delete from="-19355437" fromLane="0" to="661061473#1" toLane="1"/>
    <delete from="-19355437" fromLane="0" to="-661061473#0" toLane="1"/>
    <delete from="-19355474" fromLane="0" to="19360120" toLane="0"/>
    <delete from="-19355479#3" fromLane="0" to="-19355479#2" toLane="0"/>
    <delete from="-19355479#3" fromLane="0" to="19356227" toLane="0"/>
    <delete from="-19355923" fromLane="0" to="-19356382#3" toLane="1"/>
    <delete from="-19355923" fromLane="0" to="19356382#4" toLane="1"/>
    <delete from="-19356025#1" fromLane="0" to="-661061476#7" toLane="1"/>
    <delete from="-19356025#1" fromLane="0" to="-19356025#0" toLane="0"/>
    <delete from="-19356025#1" fromLane="0" to="661061476#8" toLane="1"/>
    <delete from="-19356025#2" fromLane="0" to="-19356025#1" toLane="0"/>
    <delete from="-19356224#1" fromLane="0" to="661061487#4" toLane="1"/>
    <delete from="-19356224#1" fromLane="0" to="-19356224#0" toLane="0"/>
    <delete from="-19356224#2" fromLane="0" to="19351910#0" toLane="0"/>
    <delete from="-19356224#2" fromLane="0" to="-19356224#1" toLane="0"/>
    <delete from="-19356224#3" fromLane="0" to="19352901#0" toLane="0"/>
    <delete from="-19356224#3" fromLane="0" to="-19356224#2" toLane="0"/>
    <delete from="-19356224#4" fromLane="0" to="-19356224#3" toLane="0"/>
    <delete from="-19356227" fromLane="0" to="19355479#3" toLane="0"/>
    <delete from="-19356269" fromLane="0" to="19356382#14" toLane="1"/>
    <delete from="-19356269" fromLane="0" to="-19356382#13" toLane="1"/>
    <delete from="-19356382#0" fromLane="1" to="19352484#0" toLane="1"/>
    <delete from="-19356382#0" fromLane="1" to="19356099#0" toLane="2"/>
    <delete from="-19356382#0" fromLane="1" to="-617523920#3" toLane="1"/>
    <delete from="-19356382#1" fromLane="1" to="19358563#0" toLane="0"/>
    <delete from="-19356382#10" fromLane="1" to="19355289#0" toLane="0"/>
    <delete from="-19356382#11" fromLane="1" to="-19354057#1" toLane="0"/>
    <delete from="-19356382#12" fromLane="1" to="19358153#0" toLane="0"/>
    <delete from="-19356382#13" fromLane="1" to="19347482" toLane="0"/>
    <delete from="-19356382#14" fromLane="1" to="19356269" toLane="0"/>
    <delete from="-19356382#15" fromLane="1" to="19356535#0" toLane="0"/>
    <delete from="-19356382#18" fromLane="1" to="576756558#0" toLane="1"/>
    <delete from="-19356382#19" fromLane="1" to="19359858" toLane="0"/>
    <delete from="-19356382#2" fromLane="1" to="19358927#0" toLane="0"/>
    <delete from="-19356382#20" fromLane="1" to="19353810#0" toLane="0"/>
    <delete from="-19356382#21" fromLane="1" to="19357262#0" toLane="0"/>
    <delete from="-19356382#21" fromLane="1" to="-19356382#20" toLane="1"/>
    <delete from="-19356382#22" fromLane="1" to="-19356382#21" toLane="1"/>
    <delete from="-19356382#22" fromLane="1" to="19353293#0" toLane="0"/>
    <delete from="-19356382#23" fromLane="1" to="19359199" toLane="0"/>
    <delete from="-19356382#24" fromLane="1" to="19353092#0" toLane="0"/>
    <delete from="-19356382#25" fromLane="1" to="19355670" toLane="0"/>
    <delete from="-19356382#27" fromLane="1" to="19357385#0" toLane="0"/>
    <delete from="-19356382#28" fromLane="1" to="19348162" toLane="0"/>
    <delete from="-19356382#29" fromLane="1" to="19352447" toLane="0"/>
    <delete from="-19356382#3" fromLane="1" to="19360459#0" toLane="0"/>
    <delete from="-19356382#30" fromLane="1" to="19351874#0" toLane="0"/>
    <delete from="-19356382#32" fromLane="1" to="19358038#0" toLane="0"/>
    <delete from="-19356382#33" fromLane="1" to="19357548" toLane="0"/>
    <delete from="-19356382#34" fromLane="1" to="19359517#0" toLane="0"/>
    <delete from="-19356382#36" fromLane="1" to="19355055" toLane="0"/>
    <delete from="-19356382#4" fromLane="1" to="19355923" toLane="0"/>
    <delete from="-19356382#5" fromLane="1" to="19361235#0" toLane="0"/>
    <delete from="-19356382#5" fromLane="1" to="19357506#0" toLane="0"/>
    <delete from="-19356382#6" fromLane="1" to="19356895#0" toLane="0"/>
    <delete from="-19356382#7" fromLane="1" to="19356703#0" toLane="0"/>
    <delete from="-19356382#8" fromLane="1" to="19358587#0" toLane="0"/>
    <delete from="-19356382#9" fromLane="1" to="19357714#0" toLane="0"/>
    <delete from="-19356452#0" fromLane="0" to="596612985#8" toLane="1"/>
    <delete from="-19356452#1" fromLane="0" to="-19356452#0" toLane="0"/>
    <delete from="-19356452#3" fromLane="0" to="371945272" toLane="0"/>
    <delete from="-19356452#3" fromLane="0" to="-19356452#2" toLane="0"/>
    <delete from="-19356535#0" fromLane="0" to="-19356382#14" toLane="1"/>
    <delete from="-19356535#0" fromLane="0" to="19356382#15" toLane="1"/>
    <delete from="-19356535#1" fromLane="0" to="-19356535#0" toLane="0"/>
    <delete from="-19356703#0" fromLane="0" to="19356382#7" toLane="1"/>
    <delete from="-19356703#0" fromLane="0" to="-19356382#6" toLane="1"/>
    <delete from="-19356703#1" fromLane="0" to="-19356703#0" toLane="0"/>
    <delete from="-19356775#1" fromLane="0" to="-19356775#0" toLane="0"/>
    <delete from="-19356775#1" fromLane="0" to="-19357396" toLane="0"/>
    <delete from="-19356775#2" fromLane="0" to="-19356775#1" toLane="0"/>
    <delete from="-19356847#0" fromLane="0" to="-19357991#0" toLane="0"/>
    <delete from="-19356895#0" fromLane="0" to="-19356382#5" toLane="1"/>
    <delete from="-19356895#0" fromLane="0" to="19356382#6" toLane="1"/>
    <delete from="-19356895#1" fromLane="0" to="-19356895#0" toLane="0"/>
    <delete from="-19357057#0" fromLane="0" to="610966930#3" toLane="1"/>
    <delete from="-19357057#0" fromLane="0" to="-19354319" toLane="0"/>
    <delete from="-19357057#1" fromLane="0" to="-19357057#0" toLane="0"/>
    <delete from="-19357057#5" fromLane="0" to="371945274#0" toLane="0"/>
    <delete from="-19357057#5" fromLane="0" to="-19357057#4" toLane="0"/>
    <delete from="-19357074" fromLane="0" to="19353351#1" toLane="0"/>
    <delete from="-19357105" fromLane="0" to="596612985#4" toLane="1"/>
    <delete from="-19357114#0" fromLane="0" to="-19357057#5" toLane="0"/>
    <delete from="-19357114#1" fromLane="0" to="-19356224#3" toLane="0"/>
    <delete from="-19357135" fromLane="0" to="19357135" toLane="0"/>
    <delete from="-19357262#0" fromLane="0" to="-19356382#20" toLane="1"/>
    <delete from="-19357262#0" fromLane="0" to="19356382#21" toLane="1"/>
    <delete from="-19357262#1" fromLane="0" to="-19357262#0" toLane="0"/>
    <delete from="-19357385#0" fromLane="0" to="-19356382#26" toLane="1"/>
    <delete from="-19357385#0" fromLane="0" to="19356382#27" toLane="1"/>
    <delete from="-19357385#1" fromLane="0" to="-19357385#0" toLane="0"/>
    <delete from="-19357408#0" fromLane="2" to="19351928" toLane="2"/>
    <delete from="-19357408#1" fromLane="2" to="-19357408#0" toLane="2"/>
    <delete from="-19357506#0" fromLane="0" to="19356382#5" toLane="1"/>
    <delete from="-19357506#0" fromLane="0" to="19361235#0" toLane="0"/>
    <delete from="-19357506#0" fromLane="0" to="-19356382#4" toLane="1"/>
    <delete from="-19357506#1" fromLane="0" to="-19357506#0" toLane="0"/>
    <delete from="-19357548" fromLane="0" to="19356382#33" toLane="1"/>
    <delete from="-19357548" fromLane="0" to="-19356382#32" toLane="1"/>
    <delete from="-19357550" fromLane="0" to="19357704#1" toLane="0"/>
    <delete from="-19357714#0" fromLane="0" to="19356382#9" toLane="1"/>
    <delete from="-19357714#0" fromLane="0" to="-19356382#8" toLane="1"/>
    <delete from="-19357714#1" fromLane="0" to="-19357714#0" toLane="0"/>
    <delete from="-19357774" fromLane="0" to="-19356703#0" toLane="0"/>
    <delete from="-19357825" fromLane="0" to="-19358927#0" toLane="0"/>
    <delete from="-19357991#0" fromLane="0" to="-440717074#7" toLane="1"/>
    <delete from="-19357991#0" fromLane="0" to="-329995274#1" toLane="0"/>
    <delete from="-19357991#0" fromLane="0" to="440717074#8" toLane="1"/>
    <delete from="-19357991#1" fromLane="0" to="-19357991#0" toLane="0"/>
    <delete from="-19358038#0" fromLane="0" to="-19356382#31" toLane="1"/>
    <delete from="-19358038#0" fromLane="0" to="19356382#32" toLane="1"/>
    <delete from="-19358038#1" fromLane="0" to="-19358038#0" toLane="0"/>
    <delete from="-19358153#0" fromLane="0" to="19356382#12" toLane="1"/>
    <delete from="-19358153#0" fromLane="0" to="-19356382#11" toLane="1"/>
    <delete from="-19358153#1" fromLane="0" to="-19358153#0" toLane="0"/>
    <delete from="-19358221#0" fromLane="2" to="-19357408#1" toLane="2"/>
    <delete from="-19358221#0" fromLane="2" to="92384033" toLane="1"/>
    <delete from="-19358221#1" fromLane="2" to="-19358221#0" toLane="2"/>
    <delete from="-19358221#1" fromLane="2" to="609488840" toLane="1"/>
    <delete from="-19358221#2" fromLane="2" to="-19358221#1" toLane="2"/>
    <delete from="-19358221#3" fromLane="2" to="-19358221#2" toLane="2"/>
    <delete from="-19358221#3" fromLane="2" to="609488839" toLane="0"/>
    <delete from="-19358254#0" fromLane="0" to="329995331#2" toLane="1"/>
    <delete from="-19358286#0" fromLane="0" to="329995331#7" toLane="1"/>
    <delete from="-19358357" fromLane="0" to="71466914#2" toLane="1"/>
    <delete from="-19358550#0" fromLane="1" to="-329995331#11" toLane="1"/>
    <delete from="-19358563#0" fromLane="0" to="19356382#1" toLane="1"/>
    <delete from="-19358563#0" fromLane="0" to="-19356382#0" toLane="1"/>
    <delete from="-19358563#1" fromLane="0" to="-19358563#0" toLane="0"/>
    <delete from="-19358587#0" fromLane="0" to="-19356382#7" toLane="1"/>
    <delete from="-19358587#0" fromLane="0" to="19356382#8" toLane="1"/>
    <delete from="-19358587#1" fromLane="0" to="-19358587#0" toLane="0"/>
    <delete from="-19358588#1" fromLane="0" to="19353381" toLane="0"/>
    <delete from="-19358601#1" fromLane="0" to="-19358658" toLane="0"/>
    <delete from="-19358658" fromLane="0" to="610966930#1" toLane="1"/>
    <delete from="-19358658" fromLane="0" to="-19359996" toLane="0"/>
    <delete from="-19358688#1" fromLane="0" to="-19358688#0" toLane="0"/>
    <delete from="-19358688#1" fromLane="0" to="19352871#0" toLane="0"/>
    <delete from="-19358690" fromLane="0" to="-440717074#1" toLane="1"/>
    <delete from="-19358690" fromLane="0" to="440717074#2" toLane="1"/>
    <delete from="-19358708" fromLane="0" to="-661061477#0" toLane="1"/>
    <delete from="-19358927#0" fromLane="0" to="-19356382#1" toLane="1"/>
    <delete from="-19358927#0" fromLane="0" to="19356382#2" toLane="1"/>
    <delete from="-19358927#1" fromLane="0" to="-19358927#0" toLane="0"/>
    <delete from="-19359071#2" fromLane="0" to="19354328" toLane="0"/>
    <delete from="-19359199" fromLane="0" to="19356382#23" toLane="1"/>
    <delete from="-19359199" fromLane="0" to="-19356382#22" toLane="1"/>
    <delete from="-19359246" fromLane="0" to="261166138#16" toLane="1"/>
    <delete from="-19359275" fromLane="0" to="19357408#1" toLane="2"/>
    <delete from="-19359450" fromLane="0" to="-19357714#0" toLane="0"/>
    <delete from="-19360028" fromLane="0" to="19360010#3" toLane="0"/>
    <delete from="-19360079" fromLane="0" to="-19353810#0" toLane="0"/>
    <delete from="-19360222#0" fromLane="1" to="661061477#0" toLane="1"/>
    <delete from="-19360222#0" fromLane="1" to="-617265279#11" toLane="1"/>
    <delete from="-19360222#5" fromLane="1" to="-19360222#4" toLane="1"/>
    <delete from="-19360222#5" fromLane="1" to="19353819" toLane="0"/>
    <delete from="-19360222#6" fromLane="1" to="-19360222#5" toLane="1"/>
    <delete from="-19360420#0" fromLane="0" to="71472729#4" toLane="1"/>
    <delete from="-19360420#0" fromLane="0" to="-19350562" toLane="1"/>
    <delete from="-19360420#1" fromLane="0" to="-19360420#0" toLane="0"/>
    <delete from="-19360459#0" fromLane="0" to="19356382#3" toLane="1"/>
    <delete from="-19360459#0" fromLane="0" to="-19356382#2" toLane="1"/>
    <delete from="-19360459#1" fromLane="0" to="-19360459#0" toLane="0"/>
    <delete from="-19360591" fromLane="0" to="19356372#1" toLane="1"/>
    <delete from="-19360818" fromLane="0" to="329995331#3" toLane="1"/>
    <delete from="-19360818" fromLane="0" to="-329995331#2" toLane="1"/>
    <delete from="-19361060#0" fromLane="0" to="-440717065#3" toLane="1"/>
    <delete from="-19361060#0" fromLane="0" to="440717065#4" toLane="1"/>
    <delete from="-19361060#1" fromLane="0" to="-19361060#0" toLane="0"/>
    <delete from="-19361060#11" fromLane="0" to="19351857#14" toLane="1"/>
    <delete from="-19361135#0" fromLane="0" to="-440717074#3" toLane="1"/>
    <delete from="-19361135#0" fromLane="0" to="440717074#4" toLane="1"/>
    <delete from="-19361135#1" fromLane="0" to="-19361135#0" toLane="0"/>
    <delete from="-19361235#0" fromLane="0" to="-19356382#4" toLane="1"/>
    <delete from="-19361235#0" fromLane="0" to="19357506#0" toLane="0"/>
    <delete from="-19361235#0" fromLane="0" to="19356382#5" toLane="1"/>
    <delete from="-19361235#1" fromLane="0" to="-19361235#0" toLane="0"/>
    <delete from="-28077357" fromLane="1" to="-329995331#11" toLane="1"/>
    <delete from="-288107046#0" fromLane="0" to="-19354558#1" toLane="1"/>
    <delete from="-329995274#1" fromLane="0" to="-329995274#0" toLane="0"/>
    <delete from="-329995274#1" fromLane="0" to="19360418" toLane="0"/>
    <delete from="-329995276#0" fromLane="0" to="19355750#0" toLane="0"/>
    <delete from="-329995277#0" fromLane="0" to="329995278#0" toLane="0"/>
    <delete from="-329995277#0" fromLane="0" to="-19352671#1" toLane="0"/>
    <delete from="-329995277#0" fromLane="0" to="-19358145" toLane="0"/>
    <delete from="-329995277#1" fromLane="0" to="-329995277#0" toLane="0"/>
    <delete from="-329995277#1" fromLane="0" to="19357704#2" toLane="0"/>
    <delete from="-329995277#2" fromLane="0" to="-329995277#1" toLane="0"/>
    <delete from="-329995330#3" fromLane="1" to="-19359199" toLane="0"/>
    <delete from="-329995331#10" fromLane="1" to="-329995331#9" toLane="1"/>
    <delete from="-329995331#10" fromLane="1" to="556846964#0" toLane="0"/>
    <delete from="-329995331#11" fromLane="1" to="-329995331#10" toLane="1"/>
    <delete from="-329995331#11" fromLane="1" to="-556846965" toLane="0"/>
    <delete from="-329995331#3" fromLane="1" to="19360818" toLane="0"/>
    <delete from="-329995331#8" fromLane="1" to="-329995331#7" toLane="1"/>
    <delete from="-329995331#9" fromLane="1" to="-329995331#8" toLane="1"/>
    <delete from="-329995331#9" fromLane="1" to="-19360459#10" toLane="0"/>
    <delete from="-358897200" fromLane="0" to="19354558#1" toLane="2"/>
    <delete from="-371945274#0" fromLane="0" to="19357057#5" toLane="0"/>
    <delete from="-440717065#2" fromLane="1" to="19351696#0" toLane="0"/>
    <delete from="-440717065#2" fromLane="1" to="19354566#0" toLane="0"/>
    <delete from="-440717065#3" fromLane="1" to="19358437" toLane="0"/>
    <delete from="-440717065#4" fromLane="1" to="19361060#0" toLane="0"/>
    <delete from="-440717065#5" fromLane="1" to="19354072#0" toLane="0"/>
    <delete from="-440717074#0" fromLane="1" to="-440717081#1" toLane="1"/>
    <delete from="-440717074#0" fromLane="1" to="19353390#0" toLane="1"/>
    <delete from="-440717074#1" fromLane="1" to="-19354328" toLane="0"/>
    <delete from="-440717074#2" fromLane="1" to="19358690" toLane="0"/>
    <delete from="-440717074#3" fromLane="1" to="19357114#0" toLane="0"/>
    <delete from="-440717074#3" fromLane="1" to="-19357057#5" toLane="0"/>
    <delete from="-440717074#5" fromLane="1" to="-19356452#3" toLane="0"/>
    <delete from="-440717074#8" fromLane="1" to="-329995274#1" toLane="0"/>
    <delete from="-440717081#0" fromLane="1" to="570938686#4" toLane="2"/>
    <delete from="-492477207#0" fromLane="1" to="19359368#0" toLane="1"/>
    <delete from="-492477207#1" fromLane="1" to="-492477207#0" toLane="1"/>
    <delete from="-492477207#4" fromLane="1" to="19352671#0" toLane="0"/>
    <delete from="-547526845" fromLane="1" to="-19355479#3" toLane="0"/>
    <delete from="-547526845" fromLane="1" to="-19352433" toLane="0"/>
    <delete from="-556846964#0" fromLane="0" to="329995331#10" toLane="1"/>
    <delete from="-556846964#0" fromLane="0" to="-329995331#9" toLane="1"/>
    <delete from="-560756425" fromLane="0" to="-19353551#1" toLane="0"/>
    <delete from="-560756425" fromLane="0" to="19353551#2" toLane="0"/>
    <delete from="-570941862#0" fromLane="0" to="547526845" toLane="1"/>
    <delete from="-570941862#0" fromLane="0" to="-19355479#3" toLane="0"/>
    <delete from="-570941862#0" fromLane="0" to="-19352433" toLane="0"/>
    <delete from="-570942394#0" fromLane="0" to="570942397" toLane="1"/>
    <delete from="-570942394#0" fromLane="0" to="-19353381" toLane="0"/>
    <delete from="-570942397" fromLane="1" to="-19353381" toLane="0"/>
    <delete from="-576756561#1" fromLane="0" to="-19356025#1" toLane="0"/>
    <delete from="-596607457#4" fromLane="0" to="92384042#5" toLane="2"/>
    <delete from="-609488839" fromLane="0" to="-19358221#2" toLane="2"/>
    <delete from="-617265279#11" fromLane="1" to="19354372#15" toLane="0"/>
    <delete from="-617265279#11" fromLane="1" to="-617265279#10" toLane="1"/>
    <delete from="-617265279#11" fromLane="1" to="-19354372#14" toLane="0"/>
    <delete from="-65356877#0" fromLane="0" to="19352433" toLane="1"/>
    <delete from="-65356877#0" fromLane="0" to="-71472970#2" toLane="1"/>
    <delete from="-661061473#1" fromLane="1" to="-661061473#0" toLane="1"/>
    <delete from="-661061473#1" fromLane="1" to="19355437" toLane="0"/>
    <delete from="-661061474#2" fromLane="1" to="19355490" toLane="0"/>
    <delete from="-661061476#3" fromLane="1" to="19352037" toLane="0"/>
    <delete from="-661061477#0" fromLane="1" to="-661061476#8" toLane="1"/>
    <delete from="-661061477#0" fromLane="1" to="-617265279#11" toLane="1"/>
    <delete from="-661061477#0" fromLane="1" to="19360222#0" toLane="1"/>
    <delete from="-661061477#1" fromLane="1" to="-661061477#0" toLane="1"/>
    <delete from="-661061478#0" fromLane="1" to="596612985#0" toLane="1"/>
    <delete from="-71472826" fromLane="1" to="-19360411" toLane="1"/>
    <delete from="-71472826" fromLane="1" to="-570942397" toLane="1"/>
    <delete from="-71472826" fromLane="1" to="19352909" toLane="1"/>
    <delete from="19347482" fromLane="0" to="-19354956#1" toLane="1"/>
    <delete from="19347482" fromLane="0" to="19354956#2" toLane="1"/>
    <delete from="19347884#0" fromLane="0" to="19347884#1" toLane="0"/>
    <delete from="19347884#1" fromLane="0" to="19353732#3" toLane="1"/>
    <delete from="19347884#1" fromLane="0" to="19347884#2" toLane="0"/>
    <delete from="19347884#2" fromLane="0" to="71472729#3" toLane="2"/>
    <delete from="19347930" fromLane="0" to="278433716#1" toLane="1"/>
    <delete from="19347965" fromLane="0" to="71472729#0" toLane="1"/>
    <delete from="19348162" fromLane="0" to="19359239#0" toLane="0"/>
    <delete from="19348162" fromLane="0" to="19352287" toLane="0"/>
    <delete from="19350493" fromLane="0" to="-19356535#11" toLane="0"/>
    <delete from="19350493" fromLane="0" to="92384042#4" toLane="2"/>
    <delete from="19350562" fromLane="1" to="19360420#0" toLane="0"/>
    <delete from="19351696#0" fromLane="0" to="19351696#1" toLane="0"/>
    <delete from="19351696#0" fromLane="0" to="19354306" toLane="0"/>
    <delete from="19351857#13" fromLane="1" to="19351857#14" toLane="1"/>
    <delete from="19351857#14" fromLane="1" to="92384042#3" toLane="1"/>
    <delete from="19351857#14" fromLane="1" to="19351857#15" toLane="1"/>
    <delete from="19351874#0" fromLane="0" to="19351874#1" toLane="0"/>
    <delete from="19351874#0" fromLane="0" to="-19353322" toLane="0"/>
    <delete from="19351916#0" fromLane="1" to="19355335#0" toLane="0"/>
    <delete from="19351916#0" fromLane="2" to="-596607457#4" toLane="0"/>
    <delete from="19351916#1" fromLane="1" to="19353264#0" toLane="0"/>
    <delete from="19351916#1" fromLane="2" to="19350493" toLane="0"/>
    <delete from="19351916#2" fromLane="2" to="-19351857#15" toLane="1"/>
    <delete from="19351916#4" fromLane="2" to="-19361060#12" toLane="0"/>
    <delete from="19351916#5" fromLane="2" to="-19350500" toLane="1"/>
    <delete from="19351916#6" fromLane="1" to="-19351928" toLane="1"/>
    <delete from="19351916#6" fromLane="2" to="-19351928" toLane="2"/>
    <delete from="19351928" fromLane="1" to="92384042#0" toLane="1"/>
    <delete from="19351928" fromLane="2" to="92384042#0" toLane="2"/>
    <delete from="19351978" fromLane="0" to="596612985#7" toLane="1"/>
    <delete from="19352017#0" fromLane="1" to="19355750#0" toLane="0"/>
    <delete from="19352017#1" fromLane="1" to="19357400" toLane="0"/>
    <delete from="19352017#2" fromLane="1" to="596612985#0" toLane="1"/>
    <delete from="19352037" fromLane="0" to="19357539#1" toLane="0"/>
    <delete from="19352044#0" fromLane="0" to="-19352871#1" toLane="0"/>
    <delete from="19352044#0" fromLane="0" to="19352044#1" toLane="0"/>
    <delete from="19352270" fromLane="0" to="-19357385#0" toLane="0"/>
    <delete from="19352285#1" fromLane="1" to="-19358038#0" toLane="0"/>
    <delete from="19352287" fromLane="0" to="19352374#0" toLane="0"/>
    <delete from="19352287" fromLane="0" to="-19353551#10" toLane="0"/>
    <delete from="19352287" fromLane="0" to="19358140" toLane="0"/>
    <delete from="19352433" fromLane="1" to="570941862#0" toLane="0"/>
    <delete from="19352433" fromLane="1" to="547526845" toLane="1"/>
    <delete from="19352433" fromLane="1" to="-19355479#3" toLane="0"/>
    <delete from="19352447" fromLane="0" to="-19352447" toLane="0"/>
    <delete from="19352671#0" fromLane="0" to="19360046#2" toLane="0"/>
    <delete from="19352671#0" fromLane="0" to="19352671#1" toLane="0"/>
    <delete from="19352671#1" fromLane="0" to="-19358145" toLane="0"/>
    <delete from="19352671#1" fromLane="0" to="329995277#0" toLane="0"/>
    <delete from="19352671#1" fromLane="0" to="329995278#0" toLane="0"/>
    <delete from="19352768" fromLane="0" to="-19358563#0" toLane="0"/>
    <delete from="19352871#0" fromLane="0" to="-19357105" toLane="0"/>
    <delete from="19353092#0" fromLane="0" to="19352270" toLane="0"/>
    <delete from="19353092#0" fromLane="0" to="19353092#1" toLane="0"/>