<?xml version="1.0" encoding="UTF-8"?>
<edges version="1.3" xmlns:xsi="http://www.w3.org/2001/XMLSchema-instance" xsi:noNamespaceSchemaLocation="http://sumo.dlr.de/xsd/edgediff_file.xsd">
    <!-- Deleted Elements -->
    <delete id="-19356382#21"/>
    <delete id="-19357548"/>
    <delete id="-19358587#0"/>
    <delete id="-19360222#5"/>
    <delete id="-492477208#0"/>
    <delete id="-492477208#1"/>
    <delete id="-492477208#2"/>
    <delete id="-610966930#10"/>
    <delete id="19347884#1"/>
    <delete id="19355437"/>
    <delete id="19356382#21"/>
    <delete id="19360222#5"/>
    <delete id="492477208#2"/>
    <delete id="610966930#10"/>
    <delete id="661061484#1"/>
    <delete id="661061484#3"/>
    <delete id="71469480#0"/>
    <delete id="71469987#5"/>
    <delete id="71472729#2"/>
    <!-- Created Elements -->
    <edge id="-19351906.115" from="gneJ18" numLanes="3" priority="10" speed="11.18" to="201102463" type="highway.tertiary">
        <lane index="0" allow="pedestrian" width="2.00"/>
        <lane index="1" disallow="pedestrian tram rail_urban rail rail_electric rail_fast ship"/>
        <lane index="2" disallow="pedestrian tram rail_urban rail rail_electric rail_fast ship"/>
    </edge>
    <edge id="-19356382#0.103" from="gneJ3" numLanes="3" priority="11" shape="9625.86,6118.02 9627.96,6124.96 9629.49,6135.48 9629.67,6142.03" speed="11.18" to="457779811" type="highway.secondary">
        <lane index="0" allow="pedestrian" width="2.00"/>
        <lane index="1" disallow="pedestrian tram rail_urban rail rail_electric rail_fast ship"/>
        <lane index="2" disallow="pedestrian tram rail_urban rail rail_electric rail_fast ship"/>
    </edge>
    <edge id="-440717074#0.74" from="cluster_gneJ43_gneJ44" numLanes="2" priority="10" shape="8978.63,3588.82 8978.85,3608.49" speed="11.18" to="gneJ30" type="highway.tertiary">
        <lane index="0" allow="pedestrian" width="2.00"/>
        <lane index="1" disallow="pedestrian tram rail_urban rail rail_electric rail_fast ship"/>
    </edge>
    <edge id="-440717074#0.92" from="gneJ30" numLanes="3" priority="10" speed="11.18" to="201143727" type="highway.tertiary">
        <lane index="0" allow="pedestrian" width="2.00"/>
        <lane index="1" disallow="pedestrian tram rail_urban rail rail_electric rail_fast ship"/>
        <lane index="2" disallow="pedestrian tram rail_urban rail rail_electric rail_fast ship"/>
    </edge>
    <edge id="-610966930#4.59" allow="pedestrian" from="gneJ9" numLanes="1" priority="10" speed="11.18" to="201120990" type="highway.tertiary" width="2.00"/>
    <edge id="-65356877#0.260" disallow="pedestrian tram rail_urban rail rail_electric rail_fast ship" from="gneJ10" numLanes="2" priority="11" speed="11.18" to="201128244" type="highway.secondary"/>
    <edge id="-661061473#1.36" from="gneJ0" numLanes="2" priority="11" shape="8760.60,4621.95 8761.92,4623.43 8789.62,4653.44" speed="11.18" to="gneJ1" type="highway.secondary">
        <lane index="0" allow="pedestrian" width="2.00"/>
        <lane index="1" disallow="pedestrian tram rail_urban rail rail_electric rail_fast ship"/>
    </edge>
    <edge id="-661061473#1.78" from="gneJ1" numLanes="2" priority="11" shape="8789.62,4653.44 8790.14,4654.01 8806.59,4672.46" speed="11.18" to="201176864" type="highway.secondary">
        <lane index="0" allow="pedestrian" width="2.00"/>
        <lane index="1" disallow="pedestrian tram rail_urban rail rail_electric rail_fast ship"/>
    </edge>
    <edge id="-71472826.114" from="gneJ12" numLanes="4" priority="12" shape="8265.82,4592.28 8265.47,4599.22 8266.56,4631.01 8266.80,4647.40" speed="11.18" to="201150041" type="highway.primary">
        <lane index="0" allow="pedestrian" width="2.00"/>
        <lane index="1" disallow="pedestrian tram rail_urban rail rail_electric rail_fast ship"/>
        <lane index="2" disallow="pedestrian tram rail_urban rail rail_electric rail_fast ship"/>
        <lane index="3" disallow="pedestrian tram rail_urban rail rail_electric rail_fast ship"/>
    </edge>
    <edge id="19353732#0.207" from="gneJ23" numLanes="3" priority="12" shape="8436.02,4034.14 8434.42,4064.49 8434.33,4069.38" speed="11.18" spreadType="center" to="201100675" type="highway.primary">
        <lane index="0" allow="pedestrian" width="2.00"/>
        <lane index="1" disallow="pedestrian tram rail_urban rail rail_electric rail_fast ship"/>
        <lane index="2" disallow="pedestrian tram rail_urban rail rail_electric rail_fast ship"/>
    </edge>
    <edge id="19356382#0.24" from="gneJ3" numLanes="2" priority="11" shape="9625.86,6118.02 9616.30,6094.94 9604.34,6075.48 9587.71,6049.93 9573.51,6028.90" speed="11.18" to="201191172" type="highway.secondary">
        <lane index="0" allow="pedestrian" width="2.00"/>
        <lane index="1" disallow="pedestrian tram rail_urban rail rail_electric rail_fast ship"/>
    </edge>
    <edge id="440717074#0.55" from="cluster_gneJ43_gneJ44" numLanes="2" priority="10" shape="8978.62,3588.19 8978.62,3587.88 8977.92,3529.07 8977.74,3514.02" speed="11.18" to="201159678" type="highway.tertiary">
        <lane index="0" allow="pedestrian" width="2.00"/>
        <lane index="1" disallow="pedestrian tram rail_urban rail rail_electric rail_fast ship"/>
    </edge>
    <edge id="570938686#2.38" from="gneJ34" numLanes="3" priority="12" shape="9188.52,3653.12 9127.29,3666.45" speed="11.18" spreadType="center" to="201119485" type="highway.primary">
        <lane index="0" allow="pedestrian" width="2.00"/>
        <lane index="1" disallow="pedestrian tram rail_urban rail rail_electric rail_fast ship"/>
        <lane index="2" disallow="pedestrian tram rail_urban rail rail_electric rail_fast ship"/>
    </edge>
    <edge id="570938686#3.60" from="gneJ31" numLanes="4" priority="12" shape="9068.17,3679.02 8981.48,3697.45" speed="11.18" spreadType="center" to="201119483" type="highway.primary">
        <lane index="0" allow="pedestrian" width="2.00"/>
        <lane index="1" disallow="pedestrian tram rail_urban rail rail_electric rail_fast ship"/>
        <lane index="2" disallow="pedestrian tram rail_urban rail rail_electric rail_fast ship"/>
        <lane index="3" disallow="pedestrian tram rail_urban rail rail_electric rail_fast ship"/>
    </edge>
    <edge id="570938686#5.75" from="gneJ27" numLanes="3" priority="12" shape="8729.41,3744.03 8617.59,3768.35" speed="11.18" spreadType="center" to="5785663193" type="highway.primary">
        <lane index="0" allow="pedestrian" width="2.00"/>
        <lane index="1" disallow="pedestrian tram rail_urban rail rail_electric rail_fast ship"/>
        <lane index="2" disallow="pedestrian tram rail_urban rail rail_electric rail_fast ship"/>
    </edge>
    <edge id="570938686#7.79" from="gneJ25" numLanes="4" priority="12" shape="8527.97,3786.71 8519.92,3787.37 8505.41,3788.76 8500.54,3789.40" speed="11.18" spreadType="center" to="2667703795" type="highway.primary">
        <lane index="0" allow="pedestrian" width="2.00"/>
        <lane index="1" disallow="pedestrian tram rail_urban rail rail_electric rail_fast ship"/>
        <lane index="2" disallow="pedestrian tram rail_urban rail rail_electric rail_fast ship"/>
        <lane index="3" disallow="pedestrian tram rail_urban rail rail_electric rail_fast ship"/>
    </edge>
    <edge id="570942397.42" disallow="pedestrian tram rail_urban rail rail_electric rail_fast ship" from="gneJ11" numLanes="2" priority="12" shape="8265.91,4686.88 8266.55,4656.50 8266.50,4647.60" speed="11.18" to="201150041" type="highway.primary"/>
    <edge id="610966930#4.45" from="gneJ9" numLanes="2" priority="10" speed="11.18" to="201062403" type="highway.tertiary">
        <lane index="0" allow="pedestrian" width="2.00"/>
        <lane index="1" disallow="pedestrian tram rail_urban rail rail_electric rail_fast ship"/>
    </edge>
    <edge id="661061473#1.25" from="gneJ1" numLanes="2" priority="11" shape="8789.62,4653.44 8761.92,4623.43 8760.60,4621.95" speed="11.18" to="gneJ0" type="highway.secondary">
        <lane index="0" allow="pedestrian" width="2.00"/>
        <lane index="1" disallow="pedestrian tram rail_urban rail rail_electric rail_fast ship"/>
    </edge>
    <edge id="661061473#1.68" from="gneJ0" numLanes="2" priority="11" shape="8760.60,4621.95 8748.15,4608.02 8743.58,4602.92 8735.97,4594.45" speed="11.18" to="201149374" type="highway.secondary">
        <lane index="0" allow="pedestrian" width="2.00"/>
        <lane index="1" disallow="pedestrian tram rail_urban rail rail_electric rail_fast ship"/>
    </edge>
    <edge id="661061487#0.144" from="gneJ26" numLanes="4" priority="12" shape="8941.44,3692.00 8980.59,3680.53" speed="11.18" spreadType="center" to="201119381" type="highway.primary">
        <lane index="0" allow="pedestrian" width="2.00"/>
        <lane index="1" disallow="pedestrian tram rail_urban rail rail_electric rail_fast ship"/>
        <lane index="2" disallow="pedestrian tram rail_urban rail rail_electric rail_fast ship"/>
        <lane index="3" disallow="pedestrian tram rail_urban rail rail_electric rail_fast ship"/>
    </edge>
    <edge id="661061487#3.24" from="gneJ35" numLanes="3" priority="12" shape="9183.72,3632.62 9220.12,3624.45" speed="11.18" spreadType="center" to="201119369" type="highway.primary">
        <lane index="0" allow="pedestrian" width="2.00"/>
        <lane index="1" disallow="pedestrian tram rail_urban rail rail_electric rail_fast ship"/>
        <lane index="2" disallow="pedestrian tram rail_urban rail rail_electric rail_fast ship"/>
    </edge>
    <edge id="661061487#4.58" from="gneJ36" numLanes="3" priority="12" shape="9278.97,3622.98 9288.54,3623.28 9292.45,3623.51 9304.06,3625.43 9318.08,3626.95 9332.31,3630.02 9343.12,3631.95" speed="11.18" spreadType="center" to="201060289" type="highway.primary">
        <lane index="0" allow="pedestrian" width="2.00"/>
        <lane index="1" disallow="pedestrian tram rail_urban rail rail_electric rail_fast ship"/>
        <lane index="2" disallow="pedestrian tram rail_urban rail rail_electric rail_fast ship"/>
    </edge>
    <edge id="71472729#1.22" from="gneJ22" numLanes="3" priority="12" shape="8329.37,4197.66 8337.76,4189.37 8347.42,4180.98 8356.82,4175.38 8374.62,4165.09 8383.18,4159.84 8394.70,4148.68 8410.02,4127.47" speed="11.18" spreadType="center" to="201065291" type="highway.primary">
        <lane index="0" allow="pedestrian" width="2.00"/>
        <lane index="1" disallow="pedestrian tram rail_urban rail rail_electric rail_fast ship"/>
        <lane index="2" disallow="pedestrian tram rail_urban rail rail_electric rail_fast ship"/>
    </edge>
    <edge id="71472826.104" from="gneJ13" numLanes="4" priority="12" shape="8269.94,4543.40 8269.95,4543.19 8273.33,4505.04 8274.76,4485.82" speed="11.18" to="201102463" type="highway.primary">
        <lane index="0" allow="pedestrian" width="2.00"/>
        <lane index="1" disallow="pedestrian tram rail_urban rail rail_electric rail_fast ship"/>
        <lane index="2" disallow="pedestrian tram rail_urban rail rail_electric rail_fast ship"/>
        <lane index="3" disallow="pedestrian tram rail_urban rail rail_electric rail_fast ship"/>
    </edge>
    <edge id="92384042#0.333" from="gneJ41" numLanes="4" priority="12" shape="10481.93,4247.51 10474.94,4244.87 10421.45,4223.39 10408.49,4217.38" speed="11.18" spreadType="center" to="201099869" type="highway.primary">
        <lane index="0" allow="pedestrian" width="2.00"/>
        <lane index="1" allow="bicycle" width="2.00"/>
        <lane index="2" disallow="pedestrian tram rail_urban rail rail_electric rail_fast ship"/>
        <lane index="3" disallow="pedestrian tram rail_urban rail rail_electric rail_fast ship"/>
    </edge>
    <edge id="92384042#1.383" from="gneJ40" numLanes="4" priority="12" shape="10090.63,4007.89 10076.61,3994.19 10056.19,3971.18 10045.06,3960.17 10033.32,3948.71 10030.08,3945.70" speed="11.18" spreadType="center" to="201119548" type="highway.primary">
        <lane index="0" allow="pedestrian" width="2.00"/>
        <lane index="1" allow="bicycle" width="2.00"/>
        <lane index="2" disallow="pedestrian tram rail_urban rail rail_electric rail_fast ship"/>
        <lane index="3" disallow="pedestrian tram rail_urban rail rail_electric rail_fast ship"/>
    </edge>
    <edge id="92384042#2.127" from="gneJ39" numLanes="4" priority="12" shape="9926.90,3871.78 9915.82,3863.83 9904.87,3856.86 9890.19,3850.96 9873.51,3844.97" speed="11.18" spreadType="center" to="201119534" type="highway.primary">
        <lane index="0" allow="pedestrian" width="2.00"/>
        <lane index="1" allow="bicycle" width="2.00"/>
        <lane index="2" disallow="pedestrian tram rail_urban rail rail_electric rail_fast ship"/>
        <lane index="3" disallow="pedestrian tram rail_urban rail rail_electric rail_fast ship"/>
    </edge>
    <edge id="92384042#3.83" from="gneJ38" numLanes="4" priority="12" shape="9796.57,3811.60 9743.11,3788.41" speed="11.18" spreadType="center" to="201099823" type="highway.primary">
        <lane index="0" allow="pedestrian" width="2.00"/>
        <lane index="1" allow="bicycle" width="2.00"/>
        <lane index="2" disallow="pedestrian tram rail_urban rail rail_electric rail_fast ship"/>
        <lane index="3" disallow="pedestrian tram rail_urban rail rail_electric rail_fast ship"/>
    </edge>
    <edge id="92384042#4.128" from="gneJ37" numLanes="4" priority="12" shape="9622.13,3746.58 9574.03,3729.94" speed="11.18" spreadType="center" to="201119531" type="highway.primary">
        <lane index="0" allow="pedestrian" width="2.00"/>
        <lane index="1" allow="bicycle" width="2.00"/>
        <lane index="2" disallow="pedestrian tram rail_urban rail rail_electric rail_fast ship"/>
        <lane index="3" disallow="pedestrian tram rail_urban rail rail_electric rail_fast ship"/>
    </edge>
    <edge id="gneE0" allow="pedestrian" from="201066043" numLanes="1" priority="-1" speed="13.89" to="201224423" width="2.00"/>
    <edge id="gneE2" from="201121046" numLanes="2" priority="-1" speed="13.89" to="201178512">
        <lane index="0" allow="pedestrian" width="2.00"/>
        <lane index="1" disallow="pedestrian"/>
    </edge>
    <edge id="gneE3" allow="pedestrian" from="201149922" numLanes="1" priority="-1" speed="13.89" to="gneJ22"/>
    <edge id="gneE4" allow="pedestrian" from="201150163" numLanes="1" priority="-1" speed="13.89" to="gneJ23"/>
    <edge id="gneE5" allow="pedestrian" from="gneJ23" numLanes="1" priority="-1" speed="13.89" to="201221120"/>
    <edge id="gneE6" allow="pedestrian" from="201119393" numLanes="1" priority="-1" speed="13.89" to="201119470"/>
    <edge id="gneE8" allow="pedestrian" from="gneJ34" numLanes="1" priority="-1" speed="13.89" to="gneJ35"/>
    <edge id="gneE9" allow="pedestrian" from="201119515" numLanes="1" priority="-1" speed="13.89" to="gneJ36" width="2.00"/>
    <!-- Changed Elements -->
    <edge id="-19347482" numLanes="2">
        <lane index="0" allow="pedestrian" width="2.00"/>
        <lane index="1" disallow="pedestrian tram rail_urban rail rail_electric rail_fast ship"/>
    </edge>
    <edge id="-19348921" allow="pedestrian passenger delivery bicycle"/>
    <edge id="-19351696#0" numLanes="2">
        <lane index="0" allow="pedestrian" width="2.00"/>
        <lane index="1" disallow="pedestrian tram rail_urban rail rail_electric rail_fast ship"/>
    </edge>
    <edge id="-19351857#14" disallow="pedestrian tram rail_urban rail rail_electric rail_fast ship" numLanes="1"/>
    <edge id="-19351906" shape="8432.70,4501.47 8426.61,4500.03 8397.07,4496.63 8317.46,4489.49" to="gneJ18"/>
    <edge id="-19351928" numLanes="2"/>
    <edge id="-19352017#0" >
        <lane index="1" disallow="pedestrian tram rail_urban rail rail_electric ship"/>
    </edge>
    <edge id="-19352017#1" >
        <lane index="1" disallow="pedestrian tram rail_urban rail rail_electric ship"/>
    </edge>
    <edge id="-19352017#2" >
        <lane index="1" disallow="pedestrian tram rail_urban rail rail_electric ship"/>
    </edge>
    <edge id="-19352433" numLanes="2">
        <lane index="0" allow="pedestrian" width="2.00"/>
        <lane index="1" disallow="pedestrian tram rail_urban rail rail_electric rail_fast ship"/>
    </edge>
    <edge id="-19352447" numLanes="2">
        <lane index="0" allow="pedestrian" width="2.00"/>
        <lane index="1" disallow="pedestrian tram rail_urban rail rail_electric rail_fast ship"/>
    </edge>
    <edge id="-19352671#0" numLanes="2">
        <lane index="0" allow="pedestrian" width="2.00"/>
        <lane index="1" disallow="pedestrian tram rail_urban rail rail_electric rail_fast ship"/>
    </edge>
    <edge id="-19352671#1" numLanes="2">
        <lane index="0" allow="pedestrian" width="2.00"/>
        <lane index="1" disallow="pedestrian tram rail_urban rail rail_electric rail_fast ship"/>
    </edge>
    <edge id="-19353092#0" numLanes="2">
        <lane index="0" allow="pedestrian" width="2.00"/>
        <lane index="1" disallow="pedestrian tram rail_urban rail rail_electric rail_fast ship"/>
    </edge>
    <edge id="-19353381" numLanes="2">
        <lane index="0" allow="pedestrian" width="2.00"/>
        <lane index="1" disallow="pedestrian tram rail_urban rail rail_electric rail_fast ship"/>
    </edge>
    <edge id="-19353499#1" numLanes="2">
        <lane index="0" allow="pedestrian" width="2.00"/>
        <lane index="1" disallow="pedestrian tram rail_urban rail rail_electric rail_fast ship"/>
    </edge>
    <edge id="-19353551#0" numLanes="2">
        <lane index="0" allow="pedestrian" width="2.00"/>
        <lane index="1" disallow="pedestrian tram rail_urban rail rail_electric rail_fast ship"/>
    </edge>
    <edge id="-19353551#1" numLanes="2">
        <lane index="0" allow="pedestrian" width="2.00"/>
        <lane index="1" disallow="pedestrian tram rail_urban rail rail_electric rail_fast ship"/>
    </edge>
    <edge id="-19353551#10" numLanes="2">
        <lane index="0" allow="pedestrian" width="2.00"/>
        <lane index="1" disallow="pedestrian tram rail_urban rail rail_electric rail_fast ship"/>
    </edge>
    <edge id="-19353551#2" numLanes="2">
        <lane index="0" allow="pedestrian" width="2.00"/>
        <lane index="1" disallow="pedestrian tram rail_urban rail rail_electric rail_fast ship"/>
    </edge>
    <edge id="-19353551#3" numLanes="2">
        <lane index="0" allow="pedestrian" width="2.00"/>
        <lane index="1" disallow="pedestrian tram rail_urban rail rail_electric rail_fast ship"/>
    </edge>
    <edge id="-19353551#4" numLanes="2">
        <lane index="0" allow="pedestrian" width="2.00"/>
        <lane index="1" disallow="pedestrian tram rail_urban rail rail_electric rail_fast ship"/>
    </edge>
    <edge id="-19353551#5" numLanes="2">
        <lane index="0" allow="pedestrian" width="2.00"/>
        <lane index="1" disallow="pedestrian tram rail_urban rail rail_electric rail_fast ship"/>
    </edge>
    <edge id="-19353551#6" numLanes="2">
        <lane index="0" allow="pedestrian" width="2.00"/>
        <lane index="1" disallow="pedestrian tram rail_urban rail rail_electric rail_fast ship"/>
    </edge>
    <edge id="-19353551#7" numLanes="2">
        <lane index="0" allow="pedestrian" width="2.00"/>
        <lane index="1" disallow="pedestrian tram rail_urban rail rail_electric rail_fast ship"/>
    </edge>
    <edge id="-19353551#8" numLanes="2">
        <lane index="0" allow="pedestrian" width="2.00"/>
        <lane index="1" disallow="pedestrian tram rail_urban rail rail_electric rail_fast ship"/>
    </edge>
    <edge id="-19353551#9" numLanes="2">
        <lane index="0" allow="pedestrian" width="2.00"/>
        <lane index="1" disallow="pedestrian tram rail_urban rail rail_electric rail_fast ship"/>
    </edge>
    <edge id="-19353810#0" numLanes="2">
        <lane index="0" allow="pedestrian" width="2.00"/>
        <lane index="1" disallow="pedestrian tram rail_urban rail rail_electric rail_fast ship"/>
    </edge>
    <edge id="-19353810#5" allow="pedestrian passenger delivery bicycle"/>
    <edge id="-19353819" shape="8888.69,967.44 9089.65,996.53" to="cluster_201151614_201176627"/>
    <edge id="-19354057#1" numLanes="2">
        <lane index="0" allow="pedestrian" width="2.00"/>
        <lane index="1" disallow="pedestrian tram rail_urban rail rail_electric rail_fast ship"/>
    </edge>
    <edge id="-19354319" numLanes="2">
        <lane index="0" allow="pedestrian" width="2.00"/>
        <lane index="1" disallow="pedestrian tram rail_urban rail rail_electric rail_fast ship"/>
    </edge>
    <edge id="-19354328" numLanes="2">
        <lane index="0" allow="pedestrian" width="2.00"/>
        <lane index="1" disallow="pedestrian tram rail_urban rail rail_electric rail_fast ship"/>
    </edge>
    <edge id="-19354558#0" numLanes="3">
        <lane index="2" disallow="pedestrian tram rail_urban rail rail_electric rail_fast ship"/>
    </edge>
    <edge id="-19354558#1" disallow="pedestrian tram rail_urban rail rail_electric rail_fast ship" numLanes="1" shape="8311.04,5472.58 8312.93,5449.38 8314.25,5433.11"/>
    <edge id="-19355081#3" numLanes="2">
        <lane index="0" allow="pedestrian" width="2.00"/>
        <lane index="1" disallow="pedestrian tram rail_urban rail rail_electric ship"/>
    </edge>
    <edge id="-19355289#0" numLanes="2">
        <lane index="0" allow="pedestrian" width="2.00"/>
        <lane index="1" disallow="pedestrian tram rail_urban rail rail_electric rail_fast ship"/>
    </edge>
    <edge id="-19355418" from="cluster_201151614_201176627"/>
    <edge id="-19355437" numLanes="3">
        <lane index="0" allow="pedestrian" width="2.00"/>
        <lane index="1" disallow="pedestrian tram rail_urban rail rail_electric rail_fast ship"/>
        <lane index="2" allow="pedestrian" width="2.00"/>
    </edge>
    <edge id="-19355479#3" numLanes="2">
        <lane index="0" allow="pedestrian" width="2.00"/>
        <lane index="1" disallow="pedestrian tram rail_urban rail rail_electric rail_fast ship"/>
    </edge>
    <edge id="-19355923" numLanes="2">
        <lane index="0" allow="pedestrian" width="2.00"/>
        <lane index="1" disallow="pedestrian tram rail_urban rail rail_electric rail_fast ship"/>
    </edge>
    <edge id="-19356025#1" numLanes="2">
        <lane index="0" allow="pedestrian" width="2.00"/>
        <lane index="1" disallow="pedestrian tram rail_urban rail rail_electric rail_fast ship"/>
    </edge>
    <edge id="-19356224#1" numLanes="2">
        <lane index="0" allow="pedestrian" width="2.00"/>
        <lane index="1" disallow="pedestrian tram rail_urban rail rail_electric rail_fast ship"/>
    </edge>
    <edge id="-19356224#2" numLanes="2">
        <lane index="0" allow="pedestrian" width="2.00"/>
        <lane index="1" disallow="pedestrian tram rail_urban rail rail_electric rail_fast ship"/>
    </edge>
    <edge id="-19356224#3" numLanes="2">
        <lane index="0" allow="pedestrian" width="2.00"/>
        <lane index="1" disallow="pedestrian tram rail_urban rail rail_electric rail_fast ship"/>
    </edge>
    <edge id="-19356269" numLanes="2">
        <lane index="0" allow="pedestrian" width="2.00"/>
        <lane index="1" disallow="pedestrian tram rail_urban rail rail_electric rail_fast ship"/>
    </edge>
    <edge id="-19356382#0" shape="9573.51,6028.90 9587.71,6049.93 9604.34,6075.48 9616.30,6094.94 9625.86,6118.02" to="gneJ3"/>
    <edge id="-19356382#20" from="cluster_201141935_201191092"/>
    <edge id="-19356382#22" shape="9063.52,5149.50 9088.75,5212.03" to="cluster_201141935_201191092"/>
    <edge id="-19356452#0" numLanes="2">
        <lane index="0" allow="pedestrian" width="2.00"/>
        <lane index="1" disallow="pedestrian tram rail_urban rail rail_electric rail_fast ship"/>
    </edge>
    <edge id="-19356452#3" numLanes="2">
        <lane index="0" allow="pedestrian" width="2.00"/>
        <lane index="1" disallow="pedestrian tram rail_urban rail rail_electric rail_fast ship"/>
    </edge>
    <edge id="-19356535#0" numLanes="2">
        <lane index="0" allow="pedestrian" width="2.00"/>
        <lane index="1" disallow="pedestrian tram rail_urban rail rail_electric rail_fast ship"/>
    </edge>
    <edge id="-19356703#0" numLanes="2">
        <lane index="0" allow="pedestrian" width="2.00"/>
        <lane index="1" disallow="pedestrian tram rail_urban rail rail_electric rail_fast ship"/>
    </edge>
    <edge id="-19356775#1" numLanes="2">
        <lane index="0" allow="pedestrian" width="2.00"/>
        <lane index="1" disallow="pedestrian tram rail_urban rail rail_electric rail_fast ship"/>
    </edge>
    <edge id="-19356895#0" numLanes="2">
        <lane index="0" allow="pedestrian" width="2.00"/>
        <lane index="1" disallow="pedestrian tram rail_urban rail rail_electric rail_fast ship"/>
    </edge>
    <edge id="-19357057#0" numLanes="2">
        <lane index="0" allow="pedestrian" width="2.00"/>
        <lane index="1" disallow="pedestrian tram rail_urban rail rail_electric rail_fast ship"/>
    </edge>
    <edge id="-19357057#5" numLanes="2">
        <lane index="0" allow="pedestrian" width="2.00"/>
        <lane index="1" disallow="pedestrian tram rail_urban rail rail_electric rail_fast ship"/>
    </edge>
    <edge id="-19357074" numLanes="2">
        <lane index="0" allow="pedestrian" width="2.00"/>
        <lane index="1" disallow="pedestrian tram rail_urban rail rail_electric rail_fast ship"/>
    </edge>
    <edge id="-19357105" numLanes="2">
        <lane index="0" allow="pedestrian" width="2.00"/>
        <lane index="1" disallow="pedestrian tram rail_urban rail rail_electric rail_fast ship"/>
    </edge>
    <edge id="-19357262#0" numLanes="2" to="cluster_201141935_201191092">
        <lane index="0" allow="pedestrian" width="2.00"/>
        <lane index="1" disallow="pedestrian tram rail_urban rail rail_electric rail_fast ship"/>
    </edge>
    <edge id="-19357385#0" numLanes="2">
        <lane index="0" allow="pedestrian" width="2.00"/>
        <lane index="1" disallow="pedestrian tram rail_urban rail rail_electric rail_fast ship"/>
    </edge>
    <edge id="-19357408#0" numLanes="2"/>
    <edge id="-19357408#1" numLanes="2"/>
    <edge id="-19357506#0" numLanes="2">
        <lane index="0" allow="pedestrian" width="2.00"/>
        <lane index="1" disallow="pedestrian tram rail_urban rail rail_electric rail_fast ship"/>
    </edge>
    <edge id="-19357550" numLanes="2">
        <lane index="0" allow="pedestrian" width="2.00"/>
        <lane index="1" disallow="pedestrian tram rail_urban rail rail_electric rail_fast ship"/>
    </edge>
    <edge id="-19357714#0" numLanes="2">
        <lane index="0" allow="pedestrian" width="2.00"/>
        <lane index="1" disallow="pedestrian tram rail_urban rail rail_electric rail_fast ship"/>
    </edge>
    <edge id="-19357991#0" numLanes="2">
        <lane index="0" allow="pedestrian" width="2.00"/>
        <lane index="1" disallow="pedestrian tram rail_urban rail rail_electric rail_fast ship"/>
    </edge>
    <edge id="-19358038#0" numLanes="2">
        <lane index="0" allow="pedestrian" width="2.00"/>
        <lane index="1" disallow="pedestrian tram rail_urban rail rail_electric rail_fast ship"/>
    </edge>
    <edge id="-19358153#0" numLanes="2">
        <lane index="0" allow="pedestrian" width="2.00"/>
        <lane index="1" disallow="pedestrian tram rail_urban rail rail_electric rail_fast ship"/>
    </edge>
    <edge id="-19358221#0" numLanes="2"/>
    <edge id="-19358221#1" numLanes="2"/>
    <edge id="-19358221#2" numLanes="2"/>
    <edge id="-19358221#3" numLanes="2"/>
    <edge id="-19358357" numLanes="2">
        <lane index="0" allow="pedestrian" width="2.00"/>
        <lane index="1" disallow="pedestrian tram rail_urban rail rail_electric rail_fast ship"/>
    </edge>
    <edge id="-19358563#0" numLanes="2">
        <lane index="0" allow="pedestrian" width="1.00"/>
        <lane index="1" disallow="pedestrian tram rail_urban rail rail_electric rail_fast ship"/>
    </edge>
    <edge id="-19358658" numLanes="2">
        <lane index="0" allow="pedestrian" width="2.00"/>
        <lane index="1" disallow="pedestrian tram rail_urban rail rail_electric rail_fast ship"/>
    </edge>
    <edge id="-19358688#1" numLanes="2">
        <lane index="0" allow="pedestrian" width="2.00"/>
        <lane index="1" disallow="pedestrian tram rail_urban rail rail_electric rail_fast ship"/>
    </edge>
    <edge id="-19358690" numLanes="2">
        <lane index="0" allow="pedestrian" width="2.00"/>
        <lane index="1" disallow="pedestrian tram rail_urban rail rail_electric rail_fast ship"/>
    </edge>
    <edge id="-19358927#0" numLanes="2">
        <lane index="0" allow="pedestrian" width="2.00"/>
        <lane index="1" disallow="pedestrian tram rail_urban rail rail_electric rail_fast ship"/>
    </edge>
    <edge id="-19359199" numLanes="2">
        <lane index="0" allow="pedestrian" width="2.00"/>
        <lane index="1" disallow="pedestrian tram rail_urban rail rail_electric rail_fast ship"/>
    </edge>
    <edge id="-19359246" numLanes="2">
        <lane index="0" allow="pedestrian" width="2.00"/>
        <lane index="1" disallow="pedestrian tram rail_urban rail rail_electric rail_fast ship"/>
    </edge>
    <edge id="-19359497" shape="8735.08,4406.93 8728.45,4396.44 8675.12,4428.61" to="201120886"/>
    <edge id="-19360222#4" from="cluster_201151614_201176627"/>
    <edge id="-19360222#6" to="cluster_201151614_201176627"/>
    <edge id="-19360420#0" numLanes="2">
        <lane index="0" allow="pedestrian" width="2.00"/>
        <lane index="1" disallow="pedestrian tram rail_urban rail rail_electric rail_fast ship"/>
    </edge>
    <edge id="-19360459#0" numLanes="2">
        <lane index="0" allow="pedestrian" width="2.00"/>
        <lane index="1" disallow="pedestrian tram rail_urban rail rail_electric rail_fast ship"/>
    </edge>