<?xml version="1.0" encoding="UTF-8"?>

<!-- generated on 09/01/19 11:26:52 by Eclipse SUMO netedit Version 1.2.0
<configuration xmlns:xsi="http://www.w3.org/2001/XMLSchema-instance" xsi:noNamespaceSchemaLocation="http://sumo.dlr.de/xsd/netconvertConfiguration.xsd">

    <input>
        <sumo-net-file value="D:\SUMO\aquidneck-island\aquidneck_island.net.xml"/>
    </input>

    <output>
        <output-file value="D:\SUMO\aquidneck-island\aquidneck_island.net.xml"/>
    </output>

    <processing>
        <geometry.max-grade.fix value="false"/>
        <offset.disable-normalization value="true"/>
        <lefthand value="false"/>
    </processing>

    <junctions>
        <no-turnarounds value="true"/>
        <junctions.corner-detail value="5"/>
        <junctions.limit-turn-speed value="5.5"/>
        <rectangular-lane-cut value="false"/>
    </junctions>

    <pedestrian>
        <walkingareas value="false"/>
    </pedestrian>

    <netedit>
        <additional-files value="D:\SUMO\aquidneck-island\tazs\newport_neighborhoods.taz"/>
    </netedit>

</configuration>
-->

<additional xmlns:xsi="http://www.w3.org/2001/XMLSchema-instance" xsi:noNamespaceSchemaLocation="http://sumo.dlr.de/xsd/additional_file.xsd">
    <taz id="americas_cup" shape="8284.15,4607.77 8413.16,4512.77 8454.21,3838.41 8156.32,3832.55 7958.11,4382.59 7952.25,4547.95 8108.23,4562.03 8197.36,4574.93 8241.93,4624.19 8284.15,4607.77">
        <tazSource weight="1.00" id="19358499#1"/>
        <tazSource weight="1.00" id="-19358499#1"/>
        <tazSource weight="1.00" id="-19358499#0"/>
        <tazSource weight="1.00" id="19358499#0"/>
        <tazSource weight="1.00" id="-511366397"/>
        <tazSource weight="1.00" id="511366397"/>
        <tazSource weight="1.00" id="19355636"/>
        <tazSource weight="1.00" id="-19355636"/>
        <tazSource weight="1.00" id="19352058"/>
        <tazSource weight="1.00" id="-19352058"/>
        <tazSource weight="1.00" id="19353318"/>
        <tazSource weight="1.00" id="-19353318"/>
        <tazSource weight="1.00" id="-19360420#0"/>
        <tazSource weight="1.00" id="19360420#0"/>
        <tazSink weight="1.00" id="19358499#1"/>
        <tazSink weight="1.00" id="-19358499#1"/>
        <tazSink weight="1.00" id="-19358499#0"/>
        <tazSink weight="1.00" id="19358499#0"/>
        <tazSink weight="1.00" id="-511366397"/>
        <tazSink weight="1.00" id="511366397"/>
        <tazSink weight="1.00" id="19355636"/>
        <tazSink weight="1.00" id="-19355636"/>
        <tazSink weight="1.00" id="19352058"/>
        <tazSink weight="1.00" id="-19352058"/>
        <tazSink weight="1.00" id="19353318"/>
        <tazSink weight="1.00" id="-19353318"/>
        <tazSink weight="1.00" id="-19360420#0"/>
        <tazSink weight="1.00" id="19360420#0"/>
    </taz>
    <taz id="bellevue" shape="8845.63,1871.23 9946.13,1957.08 9916.47,2828.11 8750.41,2751.63 8845.63,1871.23">
        <tazSource weight="1.00" id="-19355160#0"/>
        <tazSource weight="1.00" id="19355160#0"/>
        <tazSource weight="1.00" id="-19356025#1"/>
        <tazSource weight="1.00" id="19356025#1"/>
        <tazSource weight="1.00" id="-661061477#0"/>
        <tazSource weight="1.00" id="661061477#0"/>
        <tazSource weight="1.00" id="19355160#3"/>
        <tazSource weight="1.00" id="-19355160#3"/>
        <tazSource weight="1.00" id="-19352037"/>
        <tazSource weight="1.00" id="19352037"/>
        <tazSource weight="1.00" id="19357539#0"/>
        <tazSource weight="1.00" id="19357539#1"/>
        <tazSource weight="1.00" id="576756561#0"/>
        <tazSource weight="1.00" id="-576756561#0"/>
        <tazSource weight="1.00" id="19359987"/>
        <tazSource weight="1.00" id="-19359987"/>
        <tazSink weight="1.00" id="-19355160#0"/>
        <tazSink weight="1.00" id="19355160#0"/>
        <tazSink weight="1.00" id="-19356025#1"/>
        <tazSink weight="1.00" id="19356025#1"/>
        <tazSink weight="1.00" id="-661061477#0"/>
        <tazSink weight="1.00" id="661061477#0"/>
        <tazSink weight="1.00" id="19355160#3"/>
        <tazSink weight="1.00" id="-19355160#3"/>
        <tazSink weight="1.00" id="-19352037"/>
        <tazSink weight="1.00" id="19352037"/>
        <tazSink weight="1.00" id="19357539#0"/>
        <tazSink weight="1.00" id="19357539#1"/>
        <tazSink weight="1.00" id="576756561#0"/>
        <tazSink weight="1.00" id="-576756561#0"/>
        <tazSink weight="1.00" id="19359987"/>
        <tazSink weight="1.00" id="-19359987"/>
    </taz>
    <taz id="bliss" shape="9469.29,4342.60 9850.91,4420.04 10406.75,5033.95 10373.57,5672.76 10022.36,6093.10 9859.21,6079.27 9649.04,6123.52 9167.86,5371.33 9048.95,5100.32 9272.94,4948.23 9358.67,4826.55 9449.93,4345.37 9469.29,4342.60" color="blue">
        <tazSource weight="1.00" id="19351857#0"/>
        <tazSource weight="1.00" id="-19351857#0"/>
        <tazSource weight="1.00" id="-19351857#2"/>
        <tazSource weight="1.00" id="19351857#2"/>
        <tazSource weight="1.00" id="-19351857#3"/>
        <tazSource weight="1.00" id="19351857#3"/>
        <tazSource weight="1.00" id="19351857#4"/>
        <tazSource weight="1.00" id="-19351857#4"/>
        <tazSource weight="1.00" id="-19351857#6"/>
        <tazSource weight="1.00" id="19351857#6"/>
        <tazSource weight="1.00" id="19351857#5"/>
        <tazSource weight="1.00" id="-19351857#5"/>
        <tazSource weight="1.00" id="19360850#0"/>
        <tazSource weight="1.00" id="-19360850#0"/>
        <tazSource weight="1.00" id="19354576#2"/>
        <tazSource weight="1.00" id="-19354576#2"/>
        <tazSource weight="1.00" id="-19358151"/>
        <tazSource weight="1.00" id="19358151"/>
        <tazSource weight="1.00" id="19351857#8"/>
        <tazSource weight="1.00" id="-19351857#8"/>
        <tazSource weight="1.00" id="19354074"/>
        <tazSource weight="1.00" id="-19354074"/>
        <tazSource weight="1.00" id="19354575#2"/>
        <tazSource weight="1.00" id="-19354575#2"/>
        <tazSource weight="1.00" id="19354575#1"/>
        <tazSource weight="1.00" id="-19354575#1"/>
        <tazSource weight="1.00" id="-19354575#0"/>
        <tazSource weight="1.00" id="19354575#0"/>
        <tazSource weight="1.00" id="19360172#0"/>
        <tazSource weight="1.00" id="-19360172#0"/>
        <tazSource weight="1.00" id="19351857#9"/>
        <tazSource weight="1.00" id="-19351857#9"/>
        <tazSource weight="1.00" id="-19352285#6"/>
        <tazSource weight="1.00" id="19352285#6"/>
        <tazSource weight="1.00" id="19352285#7"/>
        <tazSource weight="1.00" id="-19352285#7"/>
        <tazSource weight="1.00" id="19352285#9"/>
        <tazSource weight="1.00" id="19352285#8"/>
        <tazSource weight="1.00" id="-19352285#9"/>
        <tazSource weight="1.00" id="19352285#10"/>
        <tazSource weight="1.00" id="-19352285#10"/>
        <tazSource weight="1.00" id="-19352285#11"/>
        <tazSource weight="1.00" id="19352285#11"/>
        <tazSource weight="1.00" id="19352285#12"/>
        <tazSource weight="1.00" id="-19352285#12"/>
        <tazSource weight="1.00" id="-19351857#10"/>
        <tazSource weight="1.00" id="19351857#10"/>
        <tazSource weight="1.00" id="-19360089#0"/>
        <tazSource weight="1.00" id="19360089#0"/>
        <tazSource weight="1.00" id="-19360089#1"/>
        <tazSource weight="1.00" id="19360089#1"/>
        <tazSource weight="1.00" id="-19358927#3"/>
        <tazSource weight="1.00" id="19358927#3"/>
        <tazSource weight="1.00" id="-19358927#4"/>
        <tazSource weight="1.00" id="19358927#4"/>
        <tazSource weight="1.00" id="19358927#5"/>
        <tazSource weight="1.00" id="-19358927#5"/>
        <tazSource weight="1.00" id="19358927#6"/>
        <tazSource weight="1.00" id="-19358927#6"/>
        <tazSource weight="1.00" id="19357825"/>
        <tazSource weight="1.00" id="-19357825"/>
        <tazSource weight="1.00" id="19353531#3"/>
        <tazSource weight="1.00" id="-19353531#3"/>
        <tazSource weight="1.00" id="19353531#2"/>
        <tazSource weight="1.00" id="-19353531#2"/>
        <tazSource weight="1.00" id="19358927#0"/>
        <tazSource weight="1.00" id="-19358927#0"/>
        <tazSource weight="1.00" id="-19358927#1"/>
        <tazSource weight="1.00" id="19358927#1"/>
        <tazSource weight="1.00" id="-19358927#2"/>
        <tazSource weight="1.00" id="19358927#2"/>
        <tazSource weight="1.00" id="-378219319"/>
        <tazSource weight="1.00" id="378219319"/>
        <tazSource weight="1.00" id="19353531#1"/>
        <tazSource weight="1.00" id="-19353531#1"/>
        <tazSource weight="1.00" id="19353531#0"/>
        <tazSource weight="1.00" id="-19353531#0"/>
        <tazSource weight="1.00" id="-19354297"/>
        <tazSource weight="1.00" id="19354297"/>
        <tazSource weight="1.00" id="-19354956#0"/>
        <tazSource weight="1.00" id="19354956#0"/>
        <tazSource weight="1.00" id="19354956#1"/>
        <tazSource weight="1.00" id="-19354956#1"/>
        <tazSource weight="1.00" id="19354956#2"/>
        <tazSource weight="1.00" id="-19354956#2"/>
        <tazSource weight="1.00" id="19354956#3"/>
        <tazSource weight="1.00" id="-19354956#3"/>
        <tazSource weight="1.00" id="19354057#1"/>
        <tazSource weight="1.00" id="-19354057#1"/>
        <tazSource weight="1.00" id="19354057#0"/>
        <tazSource weight="1.00" id="-19354057#0"/>
        <tazSource weight="1.00" id="19359704"/>
        <tazSource weight="1.00" id="-19359704"/>
        <tazSource weight="1.00" id="-19354956#4"/>
        <tazSource weight="1.00" id="19354956#4"/>
        <tazSource weight="1.00" id="-19354956#5"/>
        <tazSource weight="1.00" id="19353134"/>
        <tazSource weight="1.00" id="-19353134"/>
        <tazSource weight="1.00" id="-19352770"/>
        <tazSource weight="1.00" id="19352770"/>
        <tazSource weight="1.00" id="-19354956#6"/>
        <tazSource weight="1.00" id="19354956#6"/>
        <tazSource weight="1.00" id="19354956#5"/>
        <tazSource weight="1.00" id="19353048#0"/>
        <tazSource weight="1.00" id="-19353048#0"/>
        <tazSource weight="1.00" id="-19351856#1"/>
        <tazSource weight="1.00" id="19351856#1"/>
        <tazSource weight="1.00" id="19361005#0"/>
        <tazSource weight="1.00" id="-19361005#0"/>
        <tazSource weight="1.00" id="-19354574#0"/>
        <tazSource weight="1.00" id="19354574#0"/>
        <tazSource weight="1.00" id="19354574#1"/>
        <tazSource weight="1.00" id="-19354574#1"/>
        <tazSource weight="1.00" id="19354956#9"/>
        <tazSource weight="1.00" id="-19354956#9"/>
        <tazSource weight="1.00" id="19354956#8"/>
        <tazSource weight="1.00" id="-19354956#8"/>
        <tazSource weight="1.00" id="19354956#7"/>
        <tazSource weight="1.00" id="-19354956#7"/>
        <tazSource weight="1.00" id="19354956#11"/>
        <tazSource weight="1.00" id="-19354956#11"/>
        <tazSource weight="1.00" id="19354956#12"/>
        <tazSource weight="1.00" id="-19354956#12"/>
        <tazSource weight="1.00" id="19354956#13"/>
        <tazSource weight="1.00" id="-19354956#13"/>
        <tazSource weight="1.00" id="-19354956#14"/>
        <tazSource weight="1.00" id="19354956#15"/>
        <tazSource weight="1.00" id="-19354956#15"/>
        <tazSource weight="1.00" id="19354956#14"/>
        <tazSource weight="1.00" id="-19354903#0"/>
        <tazSource weight="1.00" id="19354903#0"/>
        <tazSource weight="1.00" id="19361081"/>
        <tazSource weight="1.00" id="-19361081"/>
        <tazSource weight="1.00" id="-19354903#1"/>
        <tazSource weight="1.00" id="19354903#1"/>
        <tazSource weight="1.00" id="-19352285#16"/>
        <tazSource weight="1.00" id="-19352285#15"/>
        <tazSource weight="1.00" id="19352285#14"/>
        <tazSource weight="1.00" id="-19352285#14"/>
        <tazSource weight="1.00" id="-19352285#13"/>
        <tazSource weight="1.00" id="19352285#13"/>
        <tazSource weight="1.00" id="-19352285#17"/>
        <tazSource weight="1.00" id="596607453"/>
        <tazSource weight="1.00" id="-596607453"/>
        <tazSource weight="1.00" id="19352879#1"/>
        <tazSource weight="1.00" id="-19352879#1"/>
        <tazSource weight="1.00" id="-19352879#0"/>
        <tazSource weight="1.00" id="19352879#0"/>
        <tazSource weight="1.00" id="-19359432"/>
        <tazSource weight="1.00" id="19359432"/>
        <tazSource weight="1.00" id="-596607447#3"/>
        <tazSource weight="1.00" id="596607447#3"/>
        <tazSource weight="1.00" id="19348921"/>
        <tazSource weight="1.00" id="-19348921"/>
        <tazSource weight="1.00" id="-596607447#1"/>
        <tazSource weight="1.00" id="596607447#1"/>
        <tazSource weight="1.00" id="-19354615"/>
        <tazSource weight="1.00" id="19354615"/>
        <tazSource weight="1.00" id="-19352868"/>
        <tazSource weight="1.00" id="19352868"/>
        <tazSource weight="1.00" id="-19352866"/>
        <tazSource weight="1.00" id="19352866"/>
        <tazSource weight="1.00" id="19356535#7"/>
        <tazSource weight="1.00" id="-19356535#7"/>
        <tazSource weight="1.00" id="19357262#0"/>
        <tazSource weight="1.00" id="-19357262#0"/>
        <tazSource weight="1.00" id="19357262#1"/>
        <tazSource weight="1.00" id="-19357262#1"/>
        <tazSource weight="1.00" id="-19353591#0"/>
        <tazSource weight="1.00" id="19353591#0"/>
        <tazSource weight="1.00" id="19353591#1"/>
        <tazSource weight="1.00" id="-19353591#1"/>
        <tazSource weight="1.00" id="19353810#5"/>
        <tazSource weight="1.00" id="-19353810#5"/>
        <tazSource weight="1.00" id="19353810#4"/>
        <tazSource weight="1.00" id="-19353810#4"/>
        <tazSource weight="1.00" id="19358365"/>
        <tazSource weight="1.00" id="-19358365"/>
        <tazSource weight="1.00" id="19353810#3"/>
        <tazSource weight="1.00" id="-19353810#3"/>
        <tazSource weight="1.00" id="-19356535#5"/>
        <tazSource weight="1.00" id="19356535#5"/>
        <tazSource weight="1.00" id="19356535#6"/>
        <tazSource weight="1.00" id="-19356535#6"/>
        <tazSource weight="1.00" id="19353961#0"/>
        <tazSource weight="1.00" id="-19353961#0"/>
        <tazSource weight="1.00" id="-19354908"/>
        <tazSource weight="1.00" id="19354908"/>
        <tazSource weight="1.00" id="-19353961#1"/>
        <tazSource weight="1.00" id="19353961#1"/>
        <tazSource weight="1.00" id="-19360353#2"/>
        <tazSource weight="1.00" id="19360353#2"/>
        <tazSource weight="1.00" id="19353711"/>
        <tazSource weight="1.00" id="-19353711"/>
        <tazSource weight="1.00" id="19357988"/>
        <tazSource weight="1.00" id="-19357988"/>
        <tazSource weight="1.00" id="-19360353#1"/>
        <tazSource weight="1.00" id="19360353#0"/>
        <tazSource weight="1.00" id="-19360353#0"/>
        <tazSource weight="1.00" id="19360353#1"/>
        <tazSource weight="1.00" id="19353810#1"/>
        <tazSource weight="1.00" id="-19353810#1"/>
        <tazSource weight="1.00" id="19353810#2"/>
        <tazSource weight="1.00" id="-19353810#2"/>
        <tazSource weight="1.00" id="-19353810#0"/>
        <tazSource weight="1.00" id="19353810#0"/>
        <tazSource weight="1.00" id="-19355923"/>
        <tazSource weight="1.00" id="19355923"/>
        <tazSource weight="1.00" id="-19361235#0"/>
        <tazSource weight="1.00" id="19361235#0"/>
        <tazSource weight="1.00" id="-19356895#0"/>
        <tazSource weight="1.00" id="19356895#0"/>
        <tazSource weight="1.00" id="-19358587#0"/>
        <tazSource weight="1.00" id="19358587#0"/>
        <tazSource weight="1.00" id="19347482"/>
        <tazSource weight="1.00" id="-19347482"/>
        <tazSource weight="1.00" id="19356535#0"/>
        <tazSource weight="1.00" id="-19356535#0"/>
        <tazSource weight="1.00" id="-19358928"/>
        <tazSource weight="1.00" id="19358928"/>
        <tazSource weight="1.00" id="19354572#1"/>
        <tazSource weight="1.00" id="-19354572#1"/>
        <tazSource weight="1.00" id="-19354572#0"/>
        <tazSource weight="1.00" id="19354572#0"/>
        <tazSource weight="1.00" id="19361189#0"/>
        <tazSource weight="1.00" id="-19361189#0"/>
        <tazSource weight="1.00" id="19354710#0"/>
        <tazSource weight="1.00" id="-19354710#0"/>
        <tazSource weight="1.00" id="19361189#1"/>
        <tazSource weight="1.00" id="-19361189#1"/>
        <tazSource weight="1.00" id="19361189#2"/>
        <tazSource weight="1.00" id="-19361189#2"/>
        <tazSource weight="1.00" id="19361189#3"/>
        <tazSource weight="1.00" id="-19361189#3"/>
        <tazSource weight="1.00" id="19352542"/>
        <tazSource weight="1.00" id="-19352542"/>
        <tazSource weight="1.00" id="19356535#8"/>
        <tazSource weight="1.00" id="-19356535#8"/>
        <tazSource weight="1.00" id="19354710#1"/>
        <tazSource weight="1.00" id="-19354710#1"/>
        <tazSource weight="1.00" id="19354572#2"/>
        <tazSource weight="1.00" id="-19354572#2"/>
        <tazSource weight="1.00" id="19354710#2"/>
        <tazSource weight="1.00" id="-19354710#2"/>
        <tazSource weight="1.00" id="-19358136#1"/>
        <tazSource weight="1.00" id="19358136#1"/>
        <tazSource weight="1.00" id="-19358136#2"/>
        <tazSource weight="1.00" id="19358136#2"/>
        <tazSource weight="1.00" id="19358136#3"/>
        <tazSource weight="1.00" id="-19358136#3"/>
        <tazSource weight="1.00" id="19358136#4"/>
        <tazSource weight="1.00" id="-19358136#4"/>
        <tazSource weight="1.00" id="19351857#11"/>
        <tazSource weight="1.00" id="-19351857#11"/>
        <tazSource weight="1.00" id="19351857#12"/>
        <tazSource weight="1.00" id="-19351857#12"/>
        <tazSource weight="1.00" id="19356535#9"/>
        <tazSource weight="1.00" id="-19356535#9"/>
        <tazSource weight="1.00" id="-19353092#3"/>
        <tazSource weight="1.00" id="-19353092#5"/>
        <tazSource weight="1.00" id="19353092#6"/>
        <tazSource weight="1.00" id="-19353092#6"/>
        <tazSource weight="1.00" id="19358136#0"/>
        <tazSource weight="1.00" id="-19358136#0"/>
        <tazSource weight="1.00" id="-19353092#2"/>
        <tazSource weight="1.00" id="-19353092#1"/>
        <tazSource weight="1.00" id="19353092#1"/>
        <tazSource weight="1.00" id="19353092#0"/>
        <tazSource weight="1.00" id="-19353092#0"/>
        <tazSource weight="1.00" id="19353092#5"/>
        <tazSource weight="1.00" id="19353092#3"/>
        <tazSink weight="1.00" id="19351857#0"/>
        <tazSink weight="1.00" id="-19351857#0"/>
        <tazSink weight="1.00" id="-19351857#2"/>
        <tazSink weight="1.00" id="19351857#2"/>
        <tazSink weight="1.00" id="-19351857#3"/>
        <tazSink weight="1.00" id="19351857#3"/>
        <tazSink weight="1.00" id="19351857#4"/>
        <tazSink weight="1.00" id="-19351857#4"/>
        <tazSink weight="1.00" id="-19351857#6"/>
        <tazSink weight="1.00" id="19351857#6"/>
        <tazSink weight="1.00" id="19351857#5"/>
        <tazSink weight="1.00" id="-19351857#5"/>
        <tazSink weight="1.00" id="19360850#0"/>
        <tazSink weight="1.00" id="-19360850#0"/>
        <tazSink weight="1.00" id="19354576#2"/>
        <tazSink weight="1.00" id="-19354576#2"/>
        <tazSink weight="1.00" id="-19358151"/>
        <tazSink weight="1.00" id="19358151"/>
        <tazSink weight="1.00" id="19351857#8"/>
        <tazSink weight="1.00" id="-19351857#8"/>
        <tazSink weight="1.00" id="19354074"/>
        <tazSink weight="1.00" id="-19354074"/>
        <tazSink weight="1.00" id="19354575#2"/>
        <tazSink weight="1.00" id="-19354575#2"/>
        <tazSink weight="1.00" id="19354575#1"/>
        <tazSink weight="1.00" id="-19354575#1"/>
        <tazSink weight="1.00" id="-19354575#0"/>
        <tazSink weight="1.00" id="19354575#0"/>
        <tazSink weight="1.00" id="19360172#0"/>
        <tazSink weight="1.00" id="-19360172#0"/>
        <tazSink weight="1.00" id="19351857#9"/>
        <tazSink weight="1.00" id="-19351857#9"/>
        <tazSink weight="1.00" id="-19352285#6"/>
        <tazSink weight="1.00" id="19352285#6"/>
        <tazSink weight="1.00" id="19352285#7"/>
        <tazSink weight="1.00" id="-19352285#7"/>
        <tazSink weight="1.00" id="19352285#9"/>
        <tazSink weight="1.00" id="19352285#8"/>
        <tazSink weight="1.00" id="-19352285#9"/>
        <tazSink weight="1.00" id="19352285#10"/>
        <tazSink weight="1.00" id="-19352285#10"/>
        <tazSink weight="1.00" id="-19352285#11"/>
        <tazSink weight="1.00" id="19352285#11"/>
        <tazSink weight="1.00" id="19352285#12"/>
        <tazSink weight="1.00" id="-19352285#12"/>
        <tazSink weight="1.00" id="-19351857#10"/>
        <tazSink weight="1.00" id="19351857#10"/>
        <tazSink weight="1.00" id="-19360089#0"/>
        <tazSink weight="1.00" id="19360089#0"/>
        <tazSink weight="1.00" id="-19360089#1"/>
        <tazSink weight="1.00" id="19360089#1"/>
        <tazSink weight="1.00" id="-19358927#3"/>
        <tazSink weight="1.00" id="19358927#3"/>
        <tazSink weight="1.00" id="-19358927#4"/>
        <tazSink weight="1.00" id="19358927#4"/>
        <tazSink weight="1.00" id="19358927#5"/>
        <tazSink weight="1.00" id="-19358927#5"/>
        <tazSink weight="1.00" id="19358927#6"/>
        <tazSink weight="1.00" id="-19358927#6"/>
        <tazSink weight="1.00" id="19357825"/>
        <tazSink weight="1.00" id="-19357825"/>
        <tazSink weight="1.00" id="19353531#3"/>
        <tazSink weight="1.00" id="-19353531#3"/>
        <tazSink weight="1.00" id="19353531#2"/>
        <tazSink weight="1.00" id="-19353531#2"/>
        <tazSink weight="1.00" id="19358927#0"/>
        <tazSink weight="1.00" id="-19358927#0"/>
        <tazSink weight="1.00" id="-19358927#1"/>
        <tazSink weight="1.00" id="19358927#1"/>
        <tazSink weight="1.00" id="-19358927#2"/>
        <tazSink weight="1.00" id="19358927#2"/>
        <tazSink weight="1.00" id="-378219319"/>
        <tazSink weight="1.00" id="378219319"/>
        <tazSink weight="1.00" id="19353531#1"/>
        <tazSink weight="1.00" id="-19353531#1"/>
        <tazSink weight="1.00" id="19353531#0"/>
        <tazSink weight="1.00" id="-19353531#0"/>
        <tazSink weight="1.00" id="-19354297"/>
        <tazSink weight="1.00" id="19354297"/>
        <tazSink weight="1.00" id="-19354956#0"/>
        <tazSink weight="1.00" id="19354956#0"/>
        <tazSink weight="1.00" id="19354956#1"/>
        <tazSink weight="1.00" id="-19354956#1"/>
        <tazSink weight="1.00" id="19354956#2"/>
        <tazSink weight="1.00" id="-19354956#2"/>
        <tazSink weight="1.00" id="19354956#3"/>
        <tazSink weight="1.00" id="-19354956#3"/>
        <tazSink weight="1.00" id="19354057#1"/>
        <tazSink weight="1.00" id="-19354057#1"/>
        <tazSink weight="1.00" id="19354057#0"/>
        <tazSink weight="1.00" id="-19354057#0"/>
        <tazSink weight="1.00" id="19359704"/>
        <tazSink weight="1.00" id="-19359704"/>
        <tazSink weight="1.00" id="-19354956#4"/>
        <tazSink weight="1.00" id="19354956#4"/>
        <tazSink weight="1.00" id="-19354956#5"/>
        <tazSink weight="1.00" id="19353134"/>
        <tazSink weight="1.00" id="-19353134"/>
        <tazSink weight="1.00" id="-19352770"/>
        <tazSink weight="1.00" id="19352770"/>
        <tazSink weight="1.00" id="-19354956#6"/>
        <tazSink weight="1.00" id="19354956#6"/>
        <tazSink weight="1.00" id="19354956#5"/>
        <tazSink weight="1.00" id="19353048#0"/>
        <tazSink weight="1.00" id="-19353048#0"/>
        <tazSink weight="1.00" id="-19351856#1"/>
        <tazSink weight="1.00" id="19351856#1"/>
        <tazSink weight="1.00" id="19361005#0"/>
        <tazSink weight="1.00" id="-19361005#0"/>
        <tazSink weight="1.00" id="-19354574#0"/>
        <tazSink weight="1.00" id="19354574#0"/>
        <tazSink weight="1.00" id="19354574#1"/>
        <tazSink weight="1.00" id="-19354574#1"/>
        <tazSink weight="1.00" id="19354956#9"/>
        <tazSink weight="1.00" id="-19354956#9"/>
        <tazSink weight="1.00" id="19354956#8"/>
        <tazSink weight="1.00" id="-19354956#8"/>
        <tazSink weight="1.00" id="19354956#7"/>
        <tazSink weight="1.00" id="-19354956#7"/>
        <tazSink weight="1.00" id="19354956#11"/>
        <tazSink weight="1.00" id="-19354956#11"/>
        <tazSink weight="1.00" id="19354956#12"/>
        <tazSink weight="1.00" id="-19354956#12"/>
        <tazSink weight="1.00" id="19354956#13"/>
        <tazSink weight="1.00" id="-19354956#13"/>
        <tazSink weight="1.00" id="-19354956#14"/>
        <tazSink weight="1.00" id="19354956#15"/>
        <tazSink weight="1.00" id="-19354956#15"/>
        <tazSink weight="1.00" id="19354956#14"/>
        <tazSink weight="1.00" id="-19354903#0"/>
        <tazSink weight="1.00" id="19354903#0"/>
        <tazSink weight="1.00" id="19361081"/>
        <tazSink weight="1.00" id="-19361081"/>
        <tazSink weight="1.00" id="-19354903#1"/>
        <tazSink weight="1.00" id="19354903#1"/>
        <tazSink weight="1.00" id="-19352285#16"/>
        <tazSink weight="1.00" id="-19352285#15"/>
        <tazSink weight="1.00" id="19352285#14"/>
        <tazSink weight="1.00" id="-19352285#14"/>
        <tazSink weight="1.00" id="-19352285#13"/>
        <tazSink weight="1.00" id="19352285#13"/>
        <tazSink weight="1.00" id="-19352285#17"/>
        <tazSink weight="1.00" id="596607453"/>
        <tazSink weight="1.00" id="-596607453"/>
        <tazSink weight="1.00" id="19352879#1"/>
        <tazSink weight="1.00" id="-19352879#1"/>
        <tazSink weight="1.00" id="-19352879#0"/>
        <tazSink weight="1.00" id="19352879#0"/>
        <tazSink weight="1.00" id="-19359432"/>
        <tazSink weight="1.00" id="19359432"/>
        <tazSink weight="1.00" id="-596607447#3"/>
        <tazSink weight="1.00" id="596607447#3"/>
        <tazSink weight="1.00" id="19348921"/>
        <tazSink weight="1.00" id="-19348921"/>
        <tazSink weight="1.00" id="-596607447#1"/>
        <tazSink weight="1.00" id="596607447#1"/>
        <tazSink weight="1.00" id="-19354615"/>
        <tazSink weight="1.00" id="19354615"/>
        <tazSink weight="1.00" id="-19352868"/>
        <tazSink weight="1.00" id="19352868"/>
        <tazSink weight="1.00" id="-19352866"/>
        <tazSink weight="1.00" id="19352866"/>
        <tazSink weight="1.00" id="19356535#7"/>
        <tazSink weight="1.00" id="-19356535#7"/>
        <tazSink weight="1.00" id="19357262#0"/>
        <tazSink weight="1.00" id="-19357262#0"/>
        <tazSink weight="1.00" id="19357262#1"/>
        <tazSink weight="1.00" id="-19357262#1"/>
        <tazSink weight="1.00" id="-19353591#0"/>
        <tazSink weight="1.00" id="19353591#0"/>
        <tazSink weight="1.00" id="19353591#1"/>
        <tazSink weight="1.00" id="-19353591#1"/>
        <tazSink weight="1.00" id="19353810#5"/>
        <tazSink weight="1.00" id="-19353810#5"/>
        <tazSink weight="1.00" id="19353810#4"/>
        <tazSink weight="1.00" id="-19353810#4"/>
        <tazSink weight="1.00" id="19358365"/>
        <tazSink weight="1.00" id="-19358365"/>
        <tazSink weight="1.00" id="19353810#3"/>
        <tazSink weight="1.00" id="-19353810#3"/>
        <tazSink weight="1.00" id="-19356535#5"/>
        <tazSink weight="1.00" id="19356535#5"/>
        <tazSink weight="1.00" id="19356535#6"/>
        <tazSink weight="1.00" id="-19356535#6"/>
        <tazSink weight="1.00" id="19353961#0"/>
        <tazSink weight="1.00" id="-19353961#0"/>
        <tazSink weight="1.00" id="-19354908"/>
        <tazSink weight="1.00" id="19354908"/>
        <tazSink weight="1.00" id="-19353961#1"/>
        <tazSink weight="1.00" id="19353961#1"/>
        <tazSink weight="1.00" id="-19360353#2"/>
        <tazSink weight="1.00" id="19360353#2"/>
        <tazSink weight="1.00" id="19353711"/>
        <tazSink weight="1.00" id="-19353711"/>
        <tazSink weight="1.00" id="19357988"/>
        <tazSink weight="1.00" id="-19357988"/>
        <tazSink weight="1.00" id="-19360353#1"/>
        <tazSink weight="1.00" id="19360353#0"/>
        <tazSink weight="1.00" id="-19360353#0"/>
        <tazSink weight="1.00" id="19360353#1"/>
        <tazSink weight="1.00" id="19353810#1"/>
        <tazSink weight="1.00" id="-19353810#1"/>
        <tazSink weight="1.00" id="19353810#2"/>
        <tazSink weight="1.00" id="-19353810#2"/>
        <tazSink weight="1.00" id="-19353810#0"/>
        <tazSink weight="1.00" id="19353810#0"/>
        <tazSink weight="1.00" id="-19355923"/>
        <tazSink weight="1.00" id="19355923"/>
        <tazSink weight="1.00" id="-19361235#0"/>
        <tazSink weight="1.00" id="19361235#0"/>
        <tazSink weight="1.00" id="-19356895#0"/>
        <tazSink weight="1.00" id="19356895#0"/>
        <tazSink weight="1.00" id="-19358587#0"/>
        <tazSink weight="1.00" id="19358587#0"/>
        <tazSink weight="1.00" id="19347482"/>
        <tazSink weight="1.00" id="-19347482"/>
        <tazSink weight="1.00" id="19356535#0"/>
        <tazSink weight="1.00" id="-19356535#0"/>
        <tazSink weight="1.00" id="-19358928"/>
        <tazSink weight="1.00" id="19358928"/>
        <tazSink weight="1.00" id="19354572#1"/>
        <tazSink weight="1.00" id="-19354572#1"/>
        <tazSink weight="1.00" id="-19354572#0"/>
        <tazSink weight="1.00" id="19354572#0"/>
        <tazSink weight="1.00" id="19361189#0"/>
        <tazSink weight="1.00" id="-19361189#0"/>
        <tazSink weight="1.00" id="19354710#0"/>
        <tazSink weight="1.00" id="-19354710#0"/>
        <tazSink weight="1.00" id="19361189#1"/>