<meandata>
  <interval begin="0" end="100000">
    <edge id="-65355135#1" traveltime="1000"/>
    <edge id="506440464#0" traveltime="1000"/>
    <edge id="-19353614#3" traveltime="1000"/>
  </interval>
</meandata>
