<?xml version="1.0" encoding="UTF-8"?>

<!-- generated on 08/07/19 19:47:50 by Eclipse SUMO netconvert Version 1.2.0
<configuration xmlns:xsi="http://www.w3.org/2001/XMLSchema-instance" xsi:noNamespaceSchemaLocation="http://sumo.dlr.de/xsd/netconvertConfiguration.xsd">

    <input>
        <type-files value="./typemaps/netconvert.typ.xml"/>
        <polygon-files value="aquidneck_island_polys.pol.xml"/>
        <osm-files value="./osm_files/aquidneck_island.osm"/>
    </input>

    <output>
        <output-file value="aquidneck_island_baseline.net.xml"/>
        <plain-output-prefix value="./plain/baseline/aquidneck_island"/>
        <junctions.join-output value="./plain/baseline/aquidneck_island_junction_joins.xml"/>
    </output>

    <projection>
        <proj.utm value="true"/>
    </projection>

    <building_defaults>
        <default.speed value="11.18"/>
        <default.junctions.keep-clear value="false"/>
    </building_defaults>

    <tls_building>
        <tls.join value="true"/>
        <tls.default-type value="static"/>
    </tls_building>

    <junctions>
        <no-turnarounds.except-deadend value="true"/>
        <junctions.join value="false"/>
        <junctions.join-dist value="15"/>
    </junctions>

    <pedestrian>
        <crossings.guess value="false"/>
    </pedestrian>

    <formats>
        <osm.elevation value="true"/>
    </formats>

    <report>
        <message-log value="./logs/build_messages.txt"/>
        <error-log value="./logs/build_errors.txt"/>
    </report>

</configuration>
-->

<connections version="1.1" xmlns:xsi="http://www.w3.org/2001/XMLSchema-instance" xsi:noNamespaceSchemaLocation="http://sumo.dlr.de/xsd/connections_file.xsd">
    <connection from="-102116667#0" to="102116667#0" fromLane="0" toLane="0" keepClear="0"/>

    <connection from="-102116667#1" to="196794968#1" fromLane="0" toLane="0" keepClear="0"/>
    <connection from="-102116667#1" to="-102116667#0" fromLane="0" toLane="0" keepClear="0"/>
    <connection from="-102116667#1" to="-196794968#0" fromLane="0" toLane="0" keepClear="0"/>

    <connection from="-102116667#2" to="-102116667#1" fromLane="0" toLane="0" keepClear="0"/>

    <connection from="-136458334#0" to="-19347617#1" fromLane="0" toLane="0" keepClear="0"/>
    <connection from="-136458334#0" to="19347617#2" fromLane="0" toLane="0" keepClear="0"/>

    <connection from="-136458334#1" to="-19349804#1" fromLane="0" toLane="0" keepClear="0"/>
    <connection from="-136458334#1" to="-136458334#0" fromLane="0" toLane="0" keepClear="0"/>

    <connection from="-136458335#0" to="136458341#1" fromLane="0" toLane="0" keepClear="0"/>
    <connection from="-136458335#0" to="-136458341#0" fromLane="0" toLane="0" keepClear="0"/>

    <connection from="-136458335#1" to="136458340" fromLane="0" toLane="0" keepClear="0"/>
    <connection from="-136458335#1" to="-136458335#0" fromLane="0" toLane="0" keepClear="0"/>

    <connection from="-136458336" to="19351500#1" fromLane="0" toLane="0" keepClear="0"/>
    <connection from="-136458336" to="-19351500#0" fromLane="0" toLane="0" keepClear="0"/>

    <connection from="-136458338" to="-19347814#4" fromLane="0" toLane="0" keepClear="0"/>
    <connection from="-136458338" to="19347814#5" fromLane="0" toLane="0" keepClear="0"/>

    <connection from="-136458339" to="-19347593#1" fromLane="0" toLane="0" keepClear="0"/>
    <connection from="-136458339" to="19347593#2" fromLane="0" toLane="0" keepClear="0"/>

    <connection from="-136458340" to="-136458335#0" fromLane="0" toLane="0" keepClear="0"/>
    <connection from="-136458340" to="136458335#1" fromLane="0" toLane="0" keepClear="0"/>

    <connection from="-136458341#0" to="19347599#1" fromLane="0" toLane="0" keepClear="0"/>
    <connection from="-136458341#0" to="-19347599#0" fromLane="0" toLane="0" keepClear="0"/>

    <connection from="-136458341#1" to="-136458341#0" fromLane="0" toLane="0" keepClear="0"/>
    <connection from="-136458341#1" to="136458335#0" fromLane="0" toLane="0" keepClear="0"/>

    <connection from="-136458342" to="-19349954#22" fromLane="0" toLane="0" keepClear="0"/>
    <connection from="-136458342" to="19349954#23" fromLane="0" toLane="0" keepClear="0"/>

    <connection from="-136458343" to="19349954#4" fromLane="0" toLane="0" keepClear="0"/>
    <connection from="-136458343" to="-19349954#3" fromLane="0" toLane="0" keepClear="0"/>

    <connection from="-136727590" to="-136727591#0" fromLane="0" toLane="0" keepClear="0"/>
    <connection from="-136727590" to="136727591#1" fromLane="0" toLane="0" keepClear="0"/>

    <connection from="-136727591#0" to="19357258#12" fromLane="0" toLane="0" keepClear="0"/>
    <connection from="-136727591#0" to="-19357258#11" fromLane="0" toLane="0" keepClear="0"/>
    <connection from="-136727591#0" to="136727591#0" fromLane="0" toLane="0" keepClear="0"/>

    <connection from="-136727591#1" to="136727590" fromLane="0" toLane="0" keepClear="0"/>
    <connection from="-136727591#1" to="-136727591#0" fromLane="0" toLane="0" keepClear="0"/>

    <connection from="-144446355#0" to="549064685#2" fromLane="1" toLane="1" keepClear="0"/>

    <connection from="-144446355#1" to="-144446355#0" fromLane="1" toLane="1" keepClear="0"/>

    <connection from="-144446355#10" to="-377306837" fromLane="1" toLane="0" keepClear="0"/>
    <connection from="-144446355#10" to="-144446355#9" fromLane="1" toLane="1" keepClear="0"/>

    <connection from="-144446355#11" to="-646148600" fromLane="1" toLane="0" keepClear="0"/>
    <connection from="-144446355#11" to="-144446355#10" fromLane="1" toLane="1" keepClear="0"/>

    <connection from="-144446355#2" to="-144446355#1" fromLane="1" toLane="1" keepClear="0"/>
    <connection from="-144446355#2" to="19360141" fromLane="1" toLane="0" keepClear="0"/>

    <connection from="-144446355#3" to="-144446355#2" fromLane="1" toLane="1" keepClear="0"/>
    <connection from="-144446355#3" to="19356599" fromLane="1" toLane="0" keepClear="0"/>

    <connection from="-144446355#4" to="-144446355#3" fromLane="1" toLane="1" keepClear="0"/>
    <connection from="-144446355#4" to="19359164" fromLane="1" toLane="0" keepClear="0"/>

    <connection from="-144446355#5" to="-144446355#4" fromLane="1" toLane="1" keepClear="0"/>
    <connection from="-144446355#5" to="19354148" fromLane="1" toLane="0" keepClear="0"/>

    <connection from="-144446355#6" to="19355006#0" fromLane="1" toLane="0" keepClear="0"/>
    <connection from="-144446355#6" to="-144446355#5" fromLane="1" toLane="1" keepClear="0"/>

    <connection from="-144446355#7" to="19357752" fromLane="1" toLane="0" keepClear="0"/>
    <connection from="-144446355#7" to="-144446355#6" fromLane="1" toLane="1" keepClear="0"/>

    <connection from="-144446355#8" to="-19351449" fromLane="1" toLane="0" keepClear="0"/>
    <connection from="-144446355#8" to="-144446355#7" fromLane="1" toLane="1" keepClear="0"/>

    <connection from="-144446355#9" to="19357599#0" fromLane="1" toLane="0" keepClear="0"/>
    <connection from="-144446355#9" to="-144446355#8" fromLane="1" toLane="1" keepClear="0"/>

    <connection from="-144446360#0" to="19357461" fromLane="0" toLane="0" keepClear="0"/>

    <connection from="-144446360#1" to="-19348038#1" fromLane="0" toLane="0" keepClear="0"/>
    <connection from="-144446360#1" to="-144446360#0" fromLane="0" toLane="0" keepClear="0"/>

    <connection from="-144446360#2" to="19348092#0" fromLane="0" toLane="0" keepClear="0"/>
    <connection from="-144446360#2" to="-144446360#1" fromLane="0" toLane="0" keepClear="0"/>

    <connection from="-145023134#0" to="-145023155" fromLane="0" toLane="0" keepClear="0"/>

    <connection from="-145023134#1" to="-145023134#0" fromLane="0" toLane="0" keepClear="0"/>
    <connection from="-145023134#1" to="19359835" fromLane="0" toLane="0" keepClear="0"/>

    <connection from="-145023134#10" to="-145023134#9" fromLane="0" toLane="0" keepClear="0"/>
    <connection from="-145023134#10" to="-556091580" fromLane="0" toLane="0" keepClear="0"/>

    <connection from="-145023134#11" to="556091579" fromLane="0" toLane="0" keepClear="0"/>
    <connection from="-145023134#11" to="-145023134#10" fromLane="0" toLane="0" keepClear="0"/>

    <connection from="-145023134#12" to="-145023134#11" fromLane="0" toLane="0" keepClear="0"/>
    <connection from="-145023134#12" to="19347786" fromLane="0" toLane="0" keepClear="0"/>

    <connection from="-145023134#13" to="-556096127" fromLane="0" toLane="0" keepClear="0"/>
    <connection from="-145023134#13" to="-145023134#12" fromLane="0" toLane="0" keepClear="0"/>
    <connection from="-145023134#13" to="19352840#0" fromLane="0" toLane="0" keepClear="0"/>

    <connection from="-145023134#14" to="-145023134#13" fromLane="0" toLane="0" keepClear="0"/>
    <connection from="-145023134#14" to="-19347892" fromLane="0" toLane="0" keepClear="0"/>

    <connection from="-145023134#15" to="-145023134#14" fromLane="0" toLane="0" keepClear="0"/>
    <connection from="-145023134#15" to="-19358075" fromLane="0" toLane="0" keepClear="0"/>

    <connection from="-145023134#16" to="605739067#0" fromLane="0" toLane="0" keepClear="0"/>
    <connection from="-145023134#16" to="-145023134#15" fromLane="0" toLane="0" keepClear="0"/>

    <connection from="-145023134#17" to="605739065" fromLane="0" toLane="0" keepClear="0"/>
    <connection from="-145023134#17" to="-145023134#16" fromLane="0" toLane="0" keepClear="0"/>

    <connection from="-145023134#18" to="-145023134#17" fromLane="0" toLane="0" keepClear="0"/>
    <connection from="-145023134#18" to="-556096126" fromLane="0" toLane="0" keepClear="0"/>

    <connection from="-145023134#19" to="-145023134#18" fromLane="0" toLane="0" keepClear="0"/>
    <connection from="-145023134#19" to="19353560" fromLane="0" toLane="0" keepClear="0"/>

    <connection from="-145023134#2" to="-145023134#1" fromLane="0" toLane="0" keepClear="0"/>
    <connection from="-145023134#2" to="-556091582#2" fromLane="0" toLane="0" keepClear="0"/>

    <connection from="-145023134#20" to="19347941#0" fromLane="0" toLane="0" keepClear="0"/>
    <connection from="-145023134#20" to="-145023134#19" fromLane="0" toLane="0" keepClear="0"/>
    <connection from="-145023134#20" to="-556096123" fromLane="0" toLane="0" keepClear="0"/>

    <connection from="-145023134#21" to="605739064" fromLane="0" toLane="0" keepClear="0"/>
    <connection from="-145023134#21" to="-145023134#20" fromLane="0" toLane="0" keepClear="0"/>

    <connection from="-145023134#22" to="-145023134#21" fromLane="0" toLane="0" keepClear="0"/>
    <connection from="-145023134#22" to="-605739059#2" fromLane="0" toLane="0" keepClear="0"/>

    <connection from="-145023134#23" to="-605739059#1" fromLane="0" toLane="0" keepClear="0"/>
    <connection from="-145023134#23" to="-145023134#22" fromLane="0" toLane="0" keepClear="0"/>
    <connection from="-145023134#23" to="605739059#2" fromLane="0" toLane="0" keepClear="0"/>

    <connection from="-145023134#24" to="-605739063#2" fromLane="0" toLane="0" keepClear="0"/>
    <connection from="-145023134#24" to="-145023134#23" fromLane="0" toLane="0" keepClear="0"/>

    <connection from="-145023134#25" to="-556096124#1" fromLane="0" toLane="0" keepClear="0"/>
    <connection from="-145023134#25" to="-145023134#24" fromLane="0" toLane="0" keepClear="0"/>
    <connection from="-145023134#25" to="556096124#2" fromLane="0" toLane="0" keepClear="0"/>

    <connection from="-145023134#26" to="-145023134#25" fromLane="0" toLane="0" keepClear="0"/>
    <connection from="-145023134#26" to="-605739060" fromLane="0" toLane="0" keepClear="0"/>

    <connection from="-145023134#27" to="556096124#1" fromLane="0" toLane="0" keepClear="0"/>
    <connection from="-145023134#27" to="-145023134#26" fromLane="0" toLane="0" keepClear="0"/>
    <connection from="-145023134#27" to="-556096124#0" fromLane="0" toLane="0" keepClear="0"/>

    <connection from="-145023134#28" to="605739061#0" fromLane="0" toLane="0" keepClear="0"/>
    <connection from="-145023134#28" to="-145023134#27" fromLane="0" toLane="0" keepClear="0"/>

    <connection from="-145023134#29" to="-145023134#28" fromLane="0" toLane="0" keepClear="0"/>
    <connection from="-145023134#29" to="-19359399#1" fromLane="0" toLane="0" keepClear="0"/>

    <connection from="-145023134#3" to="-145023134#2" fromLane="0" toLane="0" keepClear="0"/>
    <connection from="-145023134#3" to="-556091583" fromLane="0" toLane="0" keepClear="0"/>

    <connection from="-145023134#30" to="556096125#0" fromLane="0" toLane="0" keepClear="0"/>
    <connection from="-145023134#30" to="-145023134#29" fromLane="0" toLane="0" keepClear="0"/>

    <connection from="-145023134#31" to="604784548#2" fromLane="0" toLane="0" keepClear="0"/>
    <connection from="-145023134#31" to="-145023134#30" fromLane="0" toLane="0" keepClear="0"/>
    <connection from="-145023134#31" to="-604784548#1" fromLane="0" toLane="0" keepClear="0"/>

    <connection from="-145023134#32" to="-604784546#1" fromLane="0" toLane="0" keepClear="0"/>
    <connection from="-145023134#32" to="-145023134#31" fromLane="0" toLane="0" keepClear="0"/>

    <connection from="-145023134#33" to="-604784549" fromLane="0" toLane="0" keepClear="0"/>
    <connection from="-145023134#33" to="-145023134#32" fromLane="0" toLane="0" keepClear="0"/>

    <connection from="-145023134#34" to="-145023134#33" fromLane="0" toLane="0" keepClear="0"/>
    <connection from="-145023134#34" to="19347778#0" fromLane="0" toLane="0" keepClear="0"/>

    <connection from="-145023134#35" to="604784552#0" fromLane="0" toLane="0" keepClear="0"/>
    <connection from="-145023134#35" to="-145023134#34" fromLane="0" toLane="0" keepClear="0"/>

    <connection from="-145023134#36" to="-604784553" fromLane="0" toLane="0" keepClear="0"/>
    <connection from="-145023134#36" to="-145023134#35" fromLane="0" toLane="0" keepClear="0"/>
    <connection from="-145023134#36" to="19354190#0" fromLane="0" toLane="0" keepClear="0"/>

    <connection from="-145023134#37" to="604784553" fromLane="0" toLane="0" keepClear="0"/>
    <connection from="-145023134#37" to="-145023134#36" fromLane="0" toLane="0" keepClear="0"/>

    <connection from="-145023134#38" to="-604782701#1" fromLane="0" toLane="0" keepClear="0"/>
    <connection from="-145023134#38" to="-145023134#37" fromLane="0" toLane="0" keepClear="0"/>

    <connection from="-145023134#39" to="-604782700" fromLane="0" toLane="0" keepClear="0"/>
    <connection from="-145023134#39" to="-145023134#38" fromLane="0" toLane="0" keepClear="0"/>

    <connection from="-145023134#4" to="-145023134#3" fromLane="0" toLane="0" keepClear="0"/>
    <connection from="-145023134#4" to="19352838" fromLane="0" toLane="0" keepClear="0"/>

    <connection from="-145023134#40" to="604780936" fromLane="0" toLane="0" keepClear="0"/>
    <connection from="-145023134#40" to="-145023134#39" fromLane="0" toLane="0" keepClear="0"/>

    <connection from="-145023134#41" to="-145023134#40" fromLane="0" toLane="0" keepClear="0"/>
    <connection from="-145023134#41" to="-19356694" fromLane="0" toLane="0" keepClear="0"/>

    <connection from="-145023134#42" to="-145023134#41" fromLane="0" toLane="0" keepClear="0"/>
    <connection from="-145023134#42" to="19350558#0" fromLane="0" toLane="0" keepClear="0"/>

    <connection from="-145023134#43" to="604780930" fromLane="0" toLane="0" keepClear="0"/>
    <connection from="-145023134#43" to="-145023134#42" fromLane="0" toLane="0" keepClear="0"/>

    <connection from="-145023134#44" to="-145023134#43" fromLane="0" toLane="0" keepClear="0"/>
    <connection from="-145023134#44" to="-556092850" fromLane="0" toLane="0" keepClear="0"/>

    <connection from="-145023134#45" to="19347587" fromLane="0" toLane="1" keepClear="0"/>
    <connection from="-145023134#45" to="-145023134#44" fromLane="0" toLane="0" keepClear="0"/>

    <connection from="-145023134#5" to="-145023134#4" fromLane="0" toLane="0" keepClear="0"/>
    <connection from="-145023134#5" to="-19352838" fromLane="0" toLane="0" keepClear="0"/>

    <connection from="-145023134#6" to="-145023134#5" fromLane="0" toLane="0" keepClear="0"/>
    <connection from="-145023134#6" to="-556091581" fromLane="0" toLane="0" keepClear="0"/>

    <connection from="-145023134#7" to="-145023134#6" fromLane="0" toLane="0" keepClear="0"/>
    <connection from="-145023134#7" to="556091585#0" fromLane="0" toLane="0" keepClear="0"/>

    <connection from="-145023134#8" to="-145023134#7" fromLane="0" toLane="0" keepClear="0"/>
    <connection from="-145023134#8" to="-556091586" fromLane="0" toLane="0" keepClear="0"/>

    <connection from="-145023134#9" to="-145023134#8" fromLane="0" toLane="0" keepClear="0"/>

    <connection from="-145023155" to="-19359829" fromLane="0" toLane="0" keepClear="0"/>

    <connection from="-145037698" to="19357133#1" fromLane="0" toLane="0" keepClear="0"/>
    <connection from="-145037698" to="-19357133#0" fromLane="0" toLane="0" keepClear="0"/>

    <connection from="-150582763#0" to="-92367187#3" fromLane="1" toLane="1" keepClear="0"/>
    <connection from="-150582763#0" to="702944075" fromLane="1" toLane="1" keepClear="0"/>

    <connection from="-150582763#1" to="-651853296" fromLane="1" toLane="0" keepClear="0"/>
    <connection from="-150582763#1" to="-150582763#0" fromLane="1" toLane="1" keepClear="0"/>

    <connection from="-150583357#0" to="-150583360" fromLane="1" toLane="1" keepClear="0"/>

    <connection from="-150583357#1" to="19352615#0" fromLane="1" toLane="0" keepClear="0"/>
    <connection from="-150583357#1" to="-150583357#0" fromLane="1" toLane="1" keepClear="0"/>

    <connection from="-150583357#10" to="-150583357#9" fromLane="1" toLane="1" keepClear="0"/>
    <connection from="-150583357#10" to="19357399" fromLane="1" toLane="0" keepClear="0"/>

    <connection from="-150583357#11" to="-150583357#10" fromLane="1" toLane="1" keepClear="0"/>
    <connection from="-150583357#11" to="19357589#0" fromLane="1" toLane="0" keepClear="0"/>

    <connection from="-150583357#12" to="-150583357#11" fromLane="1" toLane="1" keepClear="0"/>
    <connection from="-150583357#12" to="-19359518" fromLane="1" toLane="0" keepClear="0"/>

    <connection from="-150583357#13" to="19350805" fromLane="1" toLane="0" keepClear="0"/>
    <connection from="-150583357#13" to="-150583357#12" fromLane="1" toLane="1" keepClear="0"/>

    <connection from="-150583357#14" to="-150583357#13" fromLane="1" toLane="1" keepClear="0"/>
    <connection from="-150583357#14" to="19348122" fromLane="1" toLane="0" keepClear="0"/>

    <connection from="-150583357#15" to="-150583357#14" fromLane="1" toLane="1" keepClear="0"/>
    <connection from="-150583357#15" to="19348124" fromLane="1" toLane="0" keepClear="0"/>

    <connection from="-150583357#16" to="19360033" fromLane="1" toLane="0" keepClear="0"/>
    <connection from="-150583357#16" to="-150583357#15" fromLane="1" toLane="1" keepClear="0"/>

    <connection from="-150583357#17" to="-150583357#16" fromLane="1" toLane="1" keepClear="0"/>
    <connection from="-150583357#17" to="-19359965" fromLane="1" toLane="0" keepClear="0"/>

    <connection from="-150583357#18" to="-150583357#17" fromLane="1" toLane="1" keepClear="0"/>
    <connection from="-150583357#18" to="19359963#0" fromLane="1" toLane="0" keepClear="0"/>

    <connection from="-150583357#2" to="-150583357#1" fromLane="1" toLane="1" keepClear="0"/>
    <connection from="-150583357#2" to="19355584#0" fromLane="1" toLane="0" keepClear="0"/>

    <connection from="-150583357#3" to="-150583357#2" fromLane="1" toLane="1" keepClear="0"/>
    <connection from="-150583357#3" to="19359422" fromLane="1" toLane="0" keepClear="0"/>

    <connection from="-150583357#4" to="19355040" fromLane="1" toLane="0" keepClear="0"/>
    <connection from="-150583357#4" to="-150583357#3" fromLane="1" toLane="1" keepClear="0"/>

    <connection from="-150583357#5" to="19349289" fromLane="1" toLane="0" keepClear="0"/>
    <connection from="-150583357#5" to="-150583357#4" fromLane="1" toLane="1" keepClear="0"/>

    <connection from="-150583357#6" to="-150583357#5" fromLane="1" toLane="1" keepClear="0"/>
    <connection from="-150583357#6" to="19349380" fromLane="1" toLane="0" keepClear="0"/>

    <connection from="-150583357#7" to="-150583357#6" fromLane="1" toLane="1" keepClear="0"/>
    <connection from="-150583357#7" to="19355642#0" fromLane="1" toLane="0" keepClear="0"/>

    <connection from="-150583357#8" to="-150583357#7" fromLane="1" toLane="1" keepClear="0"/>
    <connection from="-150583357#8" to="19351909#0" fromLane="1" toLane="0" keepClear="0"/>

    <connection from="-150583357#9" to="-150583357#8" fromLane="1" toLane="1" keepClear="0"/>
    <connection from="-150583357#9" to="19352178" fromLane="1" toLane="0" keepClear="0"/>

    <connection from="-150583360" to="-19361381" fromLane="1" toLane="1" keepClear="0"/>
    <connection from="-150583360" to="150583355" fromLane="1" toLane="1" keepClear="0"/>

    <connection from="-150583362" to="19359130" fromLane="0" toLane="0" keepClear="0"/>
    <connection from="-150583362" to="-19353207#2" fromLane="0" toLane="0" keepClear="0"/>

    <connection from="-150583540" to="92384039#1" fromLane="0" toLane="0" keepClear="0"/>

    <connection from="-150583544" to="-150583540" fromLane="0" toLane="0" keepClear="0"/>

    <connection from="-162802104#0" to="292281149" fromLane="0" toLane="0" keepClear="0"/>
    <connection from="-162802104#0" to="-19352062" fromLane="0" toLane="0" keepClear="0"/>

    <connection from="-162802104#1" to="-162802104#0" fromLane="0" toLane="0" keepClear="0"/>
    <connection from="-162802104#1" to="196794965#0" fromLane="0" toLane="0" keepClear="0"/>

    <connection from="-162802104#2" to="-162802104#1" fromLane="0" toLane="0" keepClear="0"/>
    <connection from="-162802104#2" to="392356225#0" fromLane="0" toLane="0" keepClear="0"/>

    <connection from="-162802104#3" to="-162802104#2" fromLane="0" toLane="0" keepClear="0"/>

    <connection from="-162802104#4" to="-162802104#3" fromLane="0" toLane="0" keepClear="0"/>

    <connection from="-162802104#5" to="527397879#0" fromLane="0" toLane="0" keepClear="0"/>
    <connection from="-162802104#5" to="-162802104#4" fromLane="0" toLane="0" keepClear="0"/>

    <connection from="-162802390#0" to="42876348#1" fromLane="0" toLane="1" keepClear="0"/>
    <connection from="-162802390#0" to="-19356156#2" fromLane="0" toLane="0" keepClear="0"/>
    <connection from="-162802390#0" to="-42876348#0" fromLane="0" toLane="1" keepClear="0"/>

    <connection from="-162802390#1" to="-162802390#0" fromLane="0" toLane="0" keepClear="0"/>
    <connection from="-162802390#1" to="102116657#0" fromLane="0" toLane="0" keepClear="0"/>

    <connection from="-162802390#2" to="-162802390#1" fromLane="0" toLane="0" keepClear="0"/>
    <connection from="-162802390#2" to="196794008#0" fromLane="0" toLane="0" keepClear="0"/>

    <connection from="-162802390#3" to="-162802390#2" fromLane="0" toLane="0" keepClear="0"/>

    <connection from="-162802390#4" to="-162802390#3" fromLane="0" toLane="0" keepClear="0"/>
    <connection from="-162802390#4" to="102116663#4" fromLane="0" toLane="0" keepClear="0"/>

    <connection from="-162802390#5" to="392356227#1" fromLane="0" toLane="0" keepClear="0"/>
    <connection from="-162802390#5" to="-162802390#4" fromLane="0" toLane="0" keepClear="0"/>

    <connection from="-182062886#0" to="-19352491#2" fromLane="0" toLane="0" keepClear="0"/>
    <connection from="-182062886#0" to="19352491#3" fromLane="0" toLane="0" keepClear="0"/>

    <connection from="-182062886#1" to="182062887" fromLane="0" toLane="0" keepClear="0"/>
    <connection from="-182062886#1" to="-182062886#0" fromLane="0" toLane="0" keepClear="0"/>

    <connection from="-182062886#2" to="-182062886#1" fromLane="0" toLane="0" keepClear="0"/>
    <connection from="-182062886#2" to="182062889" fromLane="0" toLane="0" keepClear="0"/>

    <connection from="-182062887" to="-182062886#0" fromLane="0" toLane="0" keepClear="0"/>
    <connection from="-182062887" to="182062886#1" fromLane="0" toLane="0" keepClear="0"/>

    <connection from="-182062888" to="-19355244#0" fromLane="0" toLane="0" keepClear="0"/>
    <connection from="-182062888" to="19355244#1" fromLane="0" toLane="0" keepClear="0"/>

    <connection from="-182062889" to="182062886#2" fromLane="0" toLane="0" keepClear="0"/>
    <connection from="-182062889" to="-182062886#1" fromLane="0" toLane="0" keepClear="0"/>

    <connection from="-182067601#0" to="19350903#1" fromLane="0" toLane="0" keepClear="0"/>
    <connection from="-182067601#0" to="-19350903#0" fromLane="0" toLane="0" keepClear="0"/>

    <connection from="-182067601#1" to="-182067601#0" fromLane="0" toLane="0" keepClear="0"/>

    <connection from="-187862812#0" to="-19354528#7" fromLane="0" toLane="0" keepClear="0"/>
    <connection from="-187862812#0" to="19354528#8" fromLane="0" toLane="1" keepClear="0"/>

    <connection from="-187862812#1" to="-187862812#0" fromLane="0" toLane="0" keepClear="0"/>
    <connection from="-187862812#1" to="187862814" fromLane="0" toLane="0" keepClear="0"/>

    <connection from="-187862814" to="187862812#1" fromLane="0" toLane="0" keepClear="0"/>
    <connection from="-187862814" to="-187862812#0" fromLane="0" toLane="0" keepClear="0"/>

    <connection from="-187862817" to="19356142#42" fromLane="0" toLane="1" keepClear="0"/>
    <connection from="-187862817" to="-19356142#41" fromLane="0" toLane="1" keepClear="0"/>

    <connection from="-191454767" to="19353553#1" fromLane="0" toLane="0" keepClear="0"/>
    <connection from="-191454767" to="-19353553#0" fromLane="0" toLane="0" keepClear="0"/>

    <connection from="-19342759" to="92372360#1" fromLane="0" toLane="1" keepClear="0"/>

    <connection from="-19342771#0" to="-19342771#1" fromLane="0" toLane="0" keepClear="0"/>

    <connection from="-19342771#1" to="-19343707#2" fromLane="0" toLane="0" keepClear="0"/>
    <connection from="-19342771#1" to="-19342771#0" fromLane="0" toLane="0" keepClear="0"/>

    <connection from="-19342874#0" to="19342886#1" fromLane="0" toLane="0" keepClear="0"/>

    <connection from="-19342874#1" to="-19342874#0" fromLane="0" toLane="0" keepClear="0"/>
    <connection from="-19342874#1" to="-556074312#1" fromLane="0" toLane="0" keepClear="0"/>

    <connection from="-19342874#2" to="-19342874#1" fromLane="0" toLane="0" keepClear="0"/>

    <connection from="-19342874#3" to="19342871#0" fromLane="0" toLane="0" keepClear="0"/>
    <connection from="-19342874#3" to="-19342874#2" fromLane="0" toLane="0" keepClear="0"/>

    <connection from="-19342874#4" to="-19342874#3" fromLane="0" toLane="0" keepClear="0"/>

    <connection from="-19342929" to="-19343707#1" fromLane="0" toLane="0" keepClear="0"/>
    <connection from="-19342929" to="19343707#2" fromLane="0" toLane="0" keepClear="0"/>

    <connection from="-19343068#0" to="-613410409#1" fromLane="0" toLane="0" keepClear="0"/>
    <connection from="-19343068#0" to="613410409#2" fromLane="0" toLane="0" keepClear="0"/>

    <connection from="-19343068#1" to="309818252" fromLane="0" toLane="0" keepClear="0"/>
    <connection from="-19343068#1" to="-19343068#0" fromLane="0" toLane="0" keepClear="0"/>

    <connection from="-19343068#2" to="-309818245" fromLane="0" toLane="0" keepClear="0"/>
    <connection from="-19343068#2" to="-19343068#1" fromLane="0" toLane="0" keepClear="0"/>

    <connection from="-19343068#3" to="309818245" fromLane="0" toLane="0" keepClear="0"/>
    <connection from="-19343068#3" to="-19343068#2" fromLane="0" toLane="0" keepClear="0"/>

    <connection from="-19343136#0" to="-19343136#1" fromLane="0" toLane="0" keepClear="0"/>

    <connection from="-19343136#1" to="-19342759" fromLane="0" toLane="0" keepClear="0"/>
    <connection from="-19343136#1" to="-19343136#0" fromLane="0" toLane="0" keepClear="0"/>

    <connection from="-19343384#0" to="19345842#0" fromLane="0" toLane="0" keepClear="0"/>
    <connection from="-19343384#0" to="-19345284#2" fromLane="0" toLane="0" keepClear="0"/>

    <connection from="-19343384#1" to="-19343384#0" fromLane="0" toLane="0" keepClear="0"/>
    <connection from="-19343384#1" to="19346544#1" fromLane="0" toLane="2" keepClear="0"/>

    <connection from="-19343707#0" to="19343707#0" fromLane="0" toLane="0" keepClear="0"/>

    <connection from="-19343707#1" to="-19343707#0" fromLane="0" toLane="0" keepClear="0"/>
    <connection from="-19343707#1" to="19344470" fromLane="0" toLane="0" keepClear="0"/>

    <connection from="-19343707#2" to="19342929" fromLane="0" toLane="0" keepClear="0"/>
    <connection from="-19343707#2" to="-19343707#1" fromLane="0" toLane="0" keepClear="0"/>

    <connection from="-19344459#0" to="-19344459#1" fromLane="0" toLane="0" keepClear="0"/>

    <connection from="-19344459#1" to="-19344470" fromLane="0" toLane="0" keepClear="0"/>
    <connection from="-19344459#1" to="-19344459#0" fromLane="0" toLane="0" keepClear="0"/>

    <connection from="-19344470" to="19343707#1" fromLane="0" toLane="0" keepClear="0"/>
    <connection from="-19344470" to="-19343707#0" fromLane="0" toLane="0" keepClear="0"/>

    <connection from="-19344998#0" to="92372387#1" fromLane="0" toLane="1" keepClear="0"/>
    <connection from="-19344998#0" to="-92372387#0" fromLane="0" toLane="1" keepClear="0"/>

    <connection from="-19344998#1" to="-19346044#1" fromLane="0" toLane="0" keepClear="0"/>
    <connection from="-19344998#1" to="-19344998#0" fromLane="0" toLane="0" keepClear="0"/>

    <connection from="-19344998#2" to="92384023#1" fromLane="0" toLane="1" keepClear="0"/>
    <connection from="-19344998#2" to="-19344998#1" fromLane="0" toLane="0" keepClear="0"/>
    <connection from="-19344998#2" to="-92384023#0" fromLane="0" toLane="2" keepClear="0"/>

    <connection from="-19344998#3" to="-19344998#2" fromLane="0" toLane="0" keepClear="0"/>