<?xml version="1.0" encoding="UTF-8"?>

<!-- generated on 08/07/19 19:47:51 by Eclipse SUMO netconvert Version 1.2.0
<configuration xmlns:xsi="http://www.w3.org/2001/XMLSchema-instance" xsi:noNamespaceSchemaLocation="http://sumo.dlr.de/xsd/netconvertConfiguration.xsd">

    <input>
        <type-files value="./typemaps/netconvert.typ.xml"/>
        <polygon-files value="aquidneck_island_polys.pol.xml"/>
        <osm-files value="./osm_files/aquidneck_island.osm"/>
    </input>

    <output>
        <output-file value="aquidneck_island_baseline.net.xml"/>
        <plain-output-prefix value="./plain/baseline/aquidneck_island"/>
        <junctions.join-output value="./plain/baseline/aquidneck_island_junction_joins.xml"/>
    </output>

    <projection>
        <proj.utm value="true"/>
    </projection>

    <building_defaults>
        <default.speed value="11.18"/>
        <default.junctions.keep-clear value="false"/>
    </building_defaults>

    <tls_building>
        <tls.join value="true"/>
        <tls.default-type value="static"/>
    </tls_building>

    <junctions>
        <no-turnarounds.except-deadend value="true"/>
        <junctions.join value="false"/>
        <junctions.join-dist value="15"/>
    </junctions>

    <pedestrian>
        <crossings.guess value="false"/>
    </pedestrian>

    <formats>
        <osm.elevation value="true"/>
    </formats>

    <report>
        <message-log value="./logs/build_messages.txt"/>
        <error-log value="./logs/build_errors.txt"/>
    </report>

</configuration>
-->

<tlLogics version="1.1" xmlns:xsi="http://www.w3.org/2001/XMLSchema-instance" xsi:noNamespaceSchemaLocation="http://sumo.dlr.de/xsd/tllogic_file.xsd">
    <tlLogic id="201059660" type="static" programID="0" offset="0">
        <phase duration="42" state="GGGGGgrr"/>
        <phase duration="3"  state="yyyyyyrr"/>
        <phase duration="42" state="GrrrrrGG"/>
        <phase duration="3"  state="yrrrrryy"/>
    </tlLogic>
    <tlLogic id="201065302" type="static" programID="0" offset="0">
        <phase duration="82" state="G"/>
        <phase duration="3"  state="y"/>
        <phase duration="5"  state="r"/>
    </tlLogic>
    <tlLogic id="201077293" type="static" programID="0" offset="0">
        <phase duration="42" state="GGgrrGGG"/>
        <phase duration="3"  state="yyyrryyy"/>
        <phase duration="42" state="rrrGGGrr"/>
        <phase duration="3"  state="rrryyyrr"/>
    </tlLogic>
    <tlLogic id="201102463" type="static" programID="0" offset="0">
        <phase duration="42" state="rrrGGgrrrrGGg"/>
        <phase duration="3"  state="rrryyyrrrryyy"/>
        <phase duration="42" state="GGgrrrGGggrrr"/>
        <phase duration="3"  state="yyyrrryyyyrrr"/>
    </tlLogic>
    <tlLogic id="201107309" type="static" programID="0" offset="0">
        <phase duration="42" state="GGgrrGGG"/>
        <phase duration="3"  state="yyyrryyy"/>
        <phase duration="42" state="rrrGGGrr"/>
        <phase duration="3"  state="rrryyyrr"/>
    </tlLogic>
    <tlLogic id="201115833" type="static" programID="0" offset="0">
        <phase duration="42" state="GGgrrGGG"/>
        <phase duration="3"  state="yyyrryyy"/>
        <phase duration="42" state="rrrGGGrr"/>
        <phase duration="3"  state="rrryyyrr"/>
    </tlLogic>
    <tlLogic id="201125350" type="static" programID="0" offset="0">
        <phase duration="42" state="rrGGGg"/>
        <phase duration="3"  state="rryyyy"/>
        <phase duration="42" state="GGGrrr"/>
        <phase duration="3"  state="yyyrrr"/>
    </tlLogic>
    <tlLogic id="201125939" type="static" programID="0" offset="0">
        <phase duration="42" state="GrGGGGg"/>
        <phase duration="3"  state="yryyyyy"/>
        <phase duration="42" state="GGGrrrr"/>
        <phase duration="3"  state="yyyrrrr"/>
    </tlLogic>
    <tlLogic id="201128244" type="static" programID="0" offset="0">
        <phase duration="42" state="GGGgrr"/>
        <phase duration="3"  state="yyyyrr"/>
        <phase duration="42" state="GrrrGG"/>
        <phase duration="3"  state="yrrryy"/>
    </tlLogic>
    <tlLogic id="201140222" type="static" programID="0" offset="0">
        <phase duration="42" state="GGgrrGGG"/>
        <phase duration="3"  state="yyyrryyy"/>
        <phase duration="42" state="rrrGGGrr"/>
        <phase duration="3"  state="rrryyyrr"/>
    </tlLogic>
    <tlLogic id="201143226" type="static" programID="0" offset="0">
        <phase duration="42" state="GGGgrrrGGGgrrr"/>
        <phase duration="3"  state="yyyyrrryyyyrrr"/>
        <phase duration="42" state="rrrrGGgrrrrGGg"/>
        <phase duration="3"  state="rrrryyyrrrryyy"/>
    </tlLogic>
    <tlLogic id="201149958" type="static" programID="0" offset="0">
        <phase duration="82" state="GG"/>
        <phase duration="3"  state="yy"/>
        <phase duration="5"  state="rr"/>
    </tlLogic>
    <tlLogic id="201150041" type="static" programID="0" offset="0">
        <phase duration="42" state="GGgrrrGGgrrr"/>
        <phase duration="3"  state="yyyrrryyyrrr"/>
        <phase duration="42" state="rrrGGgrrrGGg"/>
        <phase duration="3"  state="rrryyyrrryyy"/>
    </tlLogic>
    <tlLogic id="201150138" type="static" programID="0" offset="0">
        <phase duration="82" state="GG"/>
        <phase duration="3"  state="yy"/>
        <phase duration="5"  state="rr"/>
    </tlLogic>
    <tlLogic id="201153297" type="static" programID="0" offset="0">
        <phase duration="42" state="rrrGGgrrrGGg"/>
        <phase duration="3"  state="rrryyyrrryyy"/>
        <phase duration="42" state="GGgrrrGGgrrr"/>
        <phase duration="3"  state="yyyrrryyyrrr"/>
    </tlLogic>
    <tlLogic id="201162617" type="static" programID="0" offset="0">
        <phase duration="42" state="GGgrGG"/>
        <phase duration="3"  state="yyyryy"/>
        <phase duration="42" state="rrrGrr"/>
        <phase duration="3"  state="rrryrr"/>
    </tlLogic>
    <tlLogic id="201162652" type="static" programID="0" offset="0">
        <phase duration="38" state="rrrGGGgrrrGGGg"/>
        <phase duration="3"  state="rrryyyyrrryyyy"/>
        <phase duration="37" state="GGgrrrrGGgrrrr"/>
        <phase duration="3"  state="yygrrrryygrrrr"/>
        <phase duration="6"  state="rrGrrrrrrGrrrr"/>
        <phase duration="3"  state="rryrrrrrryrrrr"/>
    </tlLogic>
    <tlLogic id="201162663" type="static" programID="0" offset="0">
        <phase duration="42" state="GGGGGgrr"/>
        <phase duration="3"  state="yyyyyyrr"/>
        <phase duration="42" state="GrrrrrGG"/>
        <phase duration="3"  state="yrrrrryy"/>
    </tlLogic>
    <tlLogic id="201162687" type="static" programID="0" offset="0">
        <phase duration="42" state="GGGGGgrr"/>
        <phase duration="3"  state="yyyyyyrr"/>
        <phase duration="42" state="GrrrrrGG"/>
        <phase duration="3"  state="yrrrrryy"/>
    </tlLogic>
    <tlLogic id="201162718" type="static" programID="0" offset="0">
        <phase duration="42" state="GGgrrGGG"/>
        <phase duration="3"  state="yyyrryyy"/>
        <phase duration="42" state="rrrGGGrr"/>
        <phase duration="3"  state="rrryyyrr"/>
    </tlLogic>
    <tlLogic id="201163021" type="static" programID="0" offset="0">
        <phase duration="42" state="GGgrrGGG"/>
        <phase duration="3"  state="yyyrryyy"/>
        <phase duration="42" state="rrrGGGrr"/>
        <phase duration="3"  state="rrryyyrr"/>
    </tlLogic>
    <tlLogic id="201163040" type="static" programID="0" offset="0">
        <phase duration="42" state="GGGGGgrr"/>
        <phase duration="3"  state="yyyyyyrr"/>
        <phase duration="42" state="GrrrrrGG"/>
        <phase duration="3"  state="yrrrrryy"/>
    </tlLogic>
    <tlLogic id="201163129" type="static" programID="0" offset="0">
        <phase duration="42" state="rrGGGGGg"/>
        <phase duration="3"  state="rryyyyyy"/>
        <phase duration="42" state="GGGrrrrr"/>
        <phase duration="3"  state="yyyrrrrr"/>
    </tlLogic>
    <tlLogic id="201169073" type="static" programID="0" offset="0">
        <phase duration="42" state="rG"/>
        <phase duration="3"  state="ry"/>
        <phase duration="42" state="Gr"/>
        <phase duration="3"  state="yr"/>
    </tlLogic>
    <tlLogic id="201185282" type="static" programID="0" offset="0">
        <phase duration="42" state="GGGgrrrGGGgrrr"/>
        <phase duration="3"  state="yyyyrrryyyyrrr"/>
        <phase duration="42" state="rrrrGGgrrrrGGg"/>
        <phase duration="3"  state="rrrryyyrrrryyy"/>
    </tlLogic>
    <tlLogic id="201185310" type="static" programID="0" offset="0">
        <phase duration="42" state="GGgrrGGG"/>
        <phase duration="3"  state="yyyrryyy"/>
        <phase duration="42" state="rrrGGGrr"/>
        <phase duration="3"  state="rrryyyrr"/>
    </tlLogic>
    <tlLogic id="201185421" type="static" programID="0" offset="0">
        <phase duration="42" state="GGgrrGGG"/>
        <phase duration="3"  state="yyyrryyy"/>
        <phase duration="42" state="rrrGGGrr"/>
        <phase duration="3"  state="rrryyyrr"/>
    </tlLogic>
    <tlLogic id="201185717" type="static" programID="0" offset="0">
        <phase duration="42" state="GGGgrrrGGGgrrr"/>
        <phase duration="3"  state="yyyyrrryyyyrrr"/>
        <phase duration="42" state="rrrrGGgrrrrGGg"/>
        <phase duration="3"  state="rrrryyyrrrryyy"/>
    </tlLogic>
    <tlLogic id="201186196" type="static" programID="0" offset="0">
        <phase duration="40" state="GGGGGgrr"/>
        <phase duration="5"  state="yyyyyyrr"/>
        <phase duration="40" state="GrrrrrGG"/>
        <phase duration="5"  state="yrrrrryy"/>
    </tlLogic>
    <tlLogic id="201207104" type="static" programID="0" offset="0">
        <phase duration="42" state="GGgrrrGGgrrr"/>
        <phase duration="3"  state="yyyrrryyyrrr"/>
        <phase duration="42" state="rrrGGgrrrGGg"/>
        <phase duration="3"  state="rrryyyrrryyy"/>
    </tlLogic>
    <tlLogic id="201230688" type="static" programID="0" offset="0">
        <phase duration="42" state="GGgrrrGGgrrr"/>
        <phase duration="3"  state="yyyrrryyyrrr"/>
        <phase duration="42" state="rrrGGgrrrGGg"/>
        <phase duration="3"  state="rrryyyrrryyy"/>
    </tlLogic>
    <tlLogic id="4120774192" type="static" programID="0" offset="0">
        <phase duration="42" state="GGgrrGGG"/>
        <phase duration="3"  state="yyyrryyy"/>
        <phase duration="42" state="rrrGGGrr"/>
        <phase duration="3"  state="rrryyyrr"/>
    </tlLogic>
    <tlLogic id="4134950807" type="static" programID="0" offset="0">
        <phase duration="82" state="GGGG"/>
        <phase duration="3"  state="yyyy"/>
        <phase duration="5"  state="rrrr"/>
    </tlLogic>
    <tlLogic id="4134950971" type="static" programID="0" offset="0">
        <phase duration="42" state="GGGgrrrGGGgrrr"/>
        <phase duration="3"  state="yyyyrrryyyyrrr"/>
        <phase duration="42" state="rrrrGGgrrrrGGg"/>
        <phase duration="3"  state="rrrryyyrrrryyy"/>
    </tlLogic>
    <tlLogic id="4134951125" type="static" programID="0" offset="0">
        <phase duration="38" state="GGGgrrrrGGGgrrr"/>
        <phase duration="3"  state="yyyyrrrryyyyrrr"/>
        <phase duration="37" state="rrrrGGggrrrrGGg"/>
        <phase duration="3"  state="rrrryyggrrrryyg"/>
        <phase duration="6"  state="rrrrrrGGrrrrrrG"/>
        <phase duration="3"  state="rrrrrryyrrrrrry"/>
    </tlLogic>
    <tlLogic id="457779811" type="static" programID="0" offset="0">
        <phase duration="18" state="GrrrrrrrrGGG"/>
        <phase duration="3"  state="yrrrrrrrryyy"/>
        <phase duration="20" state="rrrrrrGGGGrr"/>
        <phase duration="3"  state="rrrrrryyyyrr"/>
        <phase duration="20" state="GGGGrrrrrrrr"/>
        <phase duration="3"  state="yyyyrrrrrrrr"/>
        <phase duration="20" state="rrrGGGGrrrrr"/>
        <phase duration="3"  state="rrryyyyrrrrr"/>
    </tlLogic>
    <tlLogic id="457780251" type="static" programID="0" offset="0">
        <phase duration="42" state="GGGGGgrr"/>
        <phase duration="3"  state="yyyyyyrr"/>
        <phase duration="42" state="GrrrrrGG"/>
        <phase duration="3"  state="yrrrrryy"/>
    </tlLogic>
    <tlLogic id="457780257" type="static" programID="0" offset="0">
        <phase duration="42" state="GGgrrGGG"/>
        <phase duration="3"  state="yyyrryyy"/>
        <phase duration="42" state="rrrGGGrr"/>
        <phase duration="3"  state="rrryyyrr"/>
    </tlLogic>
    <tlLogic id="457780846" type="static" programID="0" offset="0">
        <phase duration="41" state="GGGgrrrGGGgrrr"/>
        <phase duration="4"  state="yyyyrrryyyyrrr"/>
        <phase duration="41" state="rrrrGGgrrrrGGg"/>
        <phase duration="4"  state="rrrryyyrrrryyy"/>
    </tlLogic>
    <tlLogic id="5785663178" type="static" programID="0" offset="0">
        <phase duration="79" state="GG"/>
        <phase duration="6"  state="yy"/>
        <phase duration="5"  state="rr"/>
    </tlLogic>
    <tlLogic id="5785663179" type="static" programID="0" offset="0">
        <phase duration="82" state="GGG"/>
        <phase duration="3"  state="yyy"/>
        <phase duration="5"  state="rrr"/>
    </tlLogic>
    <tlLogic id="5785663180" type="static" programID="0" offset="0">
        <phase duration="82" state="GG"/>
        <phase duration="3"  state="yy"/>
        <phase duration="5"  state="rr"/>
    </tlLogic>
    <tlLogic id="5785663193" type="static" programID="0" offset="0">
        <phase duration="82" state="GG"/>
        <phase duration="3"  state="yy"/>
        <phase duration="5"  state="rr"/>
    </tlLogic>
    <tlLogic id="5785663194" type="static" programID="0" offset="0">
        <phase duration="82" state="GG"/>
        <phase duration="3"  state="yy"/>
        <phase duration="5"  state="rr"/>
    </tlLogic>
    <tlLogic id="5785663195" type="static" programID="0" offset="0">
        <phase duration="82" state="G"/>
        <phase duration="3"  state="y"/>
        <phase duration="5"  state="r"/>
    </tlLogic>
    <tlLogic id="5785663196" type="static" programID="0" offset="0">
        <phase duration="82" state="GG"/>
        <phase duration="3"  state="yy"/>
        <phase duration="5"  state="rr"/>
    </tlLogic>
    <tlLogic id="5785663197" type="static" programID="0" offset="0">
        <phase duration="82" state="GG"/>
        <phase duration="3"  state="yy"/>
        <phase duration="5"  state="rr"/>
    </tlLogic>
    <tlLogic id="5785663198" type="static" programID="0" offset="0">
        <phase duration="82" state="G"/>
        <phase duration="3"  state="y"/>
        <phase duration="5"  state="r"/>
    </tlLogic>
    <tlLogic id="joinedS_0" type="static" programID="0" offset="0">
        <phase duration="24" state="rrrrGGrrrrGGG"/>
        <phase duration="6"  state="rrrryyrrrryyy"/>
        <phase duration="24" state="rrrrGGrrGGGrG"/>
        <phase duration="6"  state="rrrryyrryyyry"/>
        <phase duration="24" state="GGGGrrGGrrrrr"/>
        <phase duration="6"  state="yyyyrryyrrrrr"/>
    </tlLogic>
    <tlLogic id="joinedS_1" type="static" programID="0" offset="0">
        <phase duration="39" state="GGGrGGrrGG"/>
        <phase duration="6"  state="yyyryyrryy"/>
        <phase duration="39" state="rrrGrrGGGG"/>
        <phase duration="6"  state="rrryrryyyy"/>
    </tlLogic>
    <tlLogic id="joinedS_2" type="static" programID="0" offset="0">
        <phase duration="33" state="rrGGGgggrrGGGG"/>
        <phase duration="3"  state="rryyygggrryyyy"/>
        <phase duration="6"  state="rrrrrGGGrrrrrr"/>
        <phase duration="3"  state="rrrrryyyrrrrrr"/>
        <phase duration="33" state="GGrrrgGgGGrrrr"/>
        <phase duration="3"  state="yyrrrgygyyrrrr"/>
        <phase duration="6"  state="rrrrrGrGrrrrrr"/>
        <phase duration="3"  state="rrrrryryrrrrrr"/>
    </tlLogic>
    <tlLogic id="joinedS_3" type="static" programID="0" offset="0">
        <phase duration="42" state="ggrrGGGGGGGGggrr"/>
        <phase duration="3"  state="yyrryyyyyyyyyyrr"/>
        <phase duration="42" state="GgGGrrrrrrrrGgGG"/>
        <phase duration="3"  state="yyyyrrrrrrrryyyy"/>
    </tlLogic>
    <tlLogic id="joinedS_4" type="static" programID="0" offset="0">
        <phase duration="38" state="ggGGGGGGrrrGGGGggGGGGGG"/>
        <phase duration="3"  state="ggyyyyyyrrryyyyggyyyyyy"/>
        <phase duration="6"  state="GGrrrrrGrrrrrGGggGGGrrr"/>
        <phase duration="3"  state="yyrrrrryrrrrryyyyyyyrrr"/>
        <phase duration="37" state="GGrrrGGGGGGrrGGrrrrrrrr"/>
        <phase duration="3"  state="yyrrryyyyyyrryyrrrrrrrr"/>
    </tlLogic>
    <tlLogic id="joinedS_5" type="static" programID="0" offset="0">
        <phase duration="42" state="rrGGGrrGrr"/>
        <phase duration="3"  state="rryyyrryrr"/>
        <phase duration="42" state="GGrrrGgGGg"/>
        <phase duration="3"  state="yyrrryyyyy"/>
    </tlLogic>
    <tlLogic id="joinedS_6" type="static" programID="0" offset="0">
        <phase duration="42" state="GGGgrrGG"/>
        <phase duration="3"  state="yyyyrryy"/>
        <phase duration="42" state="GrGGGGrr"/>
        <phase duration="3"  state="yryyyyrr"/>
    </tlLogic>

    <connection from="-19348284#1" to="-19348284#0" fromLane="0" toLane="0" tl="201070918" linkIndex="1"/>
    <connection from="-19348742#0" to="440891619#5" fromLane="1" toLane="1" tl="201077293" linkIndex="3"/>
    <connection from="-19348742#0" to="-440891619#4" fromLane="1" toLane="2" tl="201077293" linkIndex="4"/>
    <connection from="-19348799#1" to="-19348799#0" fromLane="0" toLane="0" tl="201197312" linkIndex="0"/>
    <connection from="-19348855#3" to="-19348855#2" fromLane="0" toLane="0" tl="201197335" linkIndex="1"/>
    <connection from="-19348998#1" to="-19348998#0" fromLane="0" toLane="0" tl="201197281" linkIndex="1"/>
    <connection from="-19349145#1" to="-19349145#0" fromLane="0" toLane="0" tl="201257996" linkIndex="1"/>
    <connection from="-19349372#1" to="-19349372#0" fromLane="0" toLane="0" tl="201085749" linkIndex="1"/>
    <connection from="-19349752#2" to="-19349752#1" fromLane="0" toLane="0" tl="201090635" linkIndex="0"/>
    <connection from="-19349756#1" to="-19349756#0" fromLane="0" toLane="0" tl="2914407895" linkIndex="1"/>
    <connection from="-19350562" to="19353732#1" fromLane="1" toLane="2" tl="joinedS_2" linkIndex="5"/>
    <connection from="-19351720#0" to="19354528#23" fromLane="0" toLane="0" tl="201115833" linkIndex="3"/>
    <connection from="-19351720#0" to="-19354528#22" fromLane="0" toLane="1" tl="201115833" linkIndex="4"/>
    <connection from="-19351906" to="-71472826" fromLane="1" toLane="1" tl="201102463" linkIndex="0"/>
    <connection from="-19351906" to="610207981" fromLane="1" toLane="0" tl="201102463" linkIndex="1"/>
    <connection from="-19351906" to="-560828708" fromLane="1" toLane="1" tl="201102463" linkIndex="2"/>
    <connection from="-19352316#0" to="-440891616#8" fromLane="1" toLane="1" tl="201125939" linkIndex="4"/>
    <connection from="-19352316#0" to="-440891616#8" fromLane="2" toLane="2" tl="201125939" linkIndex="5"/>
    <connection from="-19352316#0" to="92392676#0" fromLane="2" toLane="1" tl="201125939" linkIndex="6"/>
    <connection from="-19352433" to="-71472970#2" fromLane="0" toLane="1" tl="201128244" linkIndex="4"/>
    <connection from="-19352433" to="65356877#0" fromLane="0" toLane="1" tl="201128244" linkIndex="5"/>
    <connection from="-19352484#0" to="19356099#0" fromLane="1" toLane="1" tl="457779811" linkIndex="3"/>
    <connection from="-19352484#0" to="-617523920#3" fromLane="1" toLane="1" tl="457779811" linkIndex="4"/>
    <connection from="-19352484#0" to="19356382#0" fromLane="1" toLane="1" tl="457779811" linkIndex="5"/>
    <connection from="-19352909" to="71472826" fromLane="1" toLane="1" tl="201150041" linkIndex="9"/>
    <connection from="-19352909" to="-19360411" fromLane="1" toLane="1" tl="201150041" linkIndex="10"/>
    <connection from="-19352909" to="-570942397" fromLane="1" toLane="1" tl="201150041" linkIndex="11"/>
    <connection from="-19354123#0" to="661055495#1" fromLane="1" toLane="0" tl="201185717" linkIndex="4"/>
    <connection from="-19354123#0" to="19359669#0" fromLane="1" toLane="1" tl="201185717" linkIndex="5"/>
    <connection from="-19354123#0" to="-661055495#0" fromLane="1" toLane="2" tl="201185717" linkIndex="6"/>
    <connection from="-19354142#0" to="-411916245#6" fromLane="0" toLane="1" tl="201143226" linkIndex="4"/>
    <connection from="-19354142#0" to="-19353368#13" fromLane="0" toLane="1" tl="201143226" linkIndex="5"/>
    <connection from="-19354142#0" to="586093484#0" fromLane="0" toLane="2" tl="201143226" linkIndex="6"/>
    <connection from="-19354528#23" to="-19354528#22" fromLane="0" toLane="0" tl="201115833" linkIndex="0"/>
    <connection from="-19354528#23" to="-19354528#22" fromLane="1" toLane="1" tl="201115833" linkIndex="1"/>
    <connection from="-19354528#23" to="19351720#0" fromLane="1" toLane="0" tl="201115833" linkIndex="2"/>
    <connection from="-19354528#5" to="-19354528#4" fromLane="0" toLane="0" tl="457780257" linkIndex="0"/>
    <connection from="-19354528#5" to="-19354528#4" fromLane="1" toLane="1" tl="457780257" linkIndex="1"/>
    <connection from="-19354528#5" to="19356918" fromLane="1" toLane="1" tl="457780257" linkIndex="2"/>
    <connection from="-19354528#6" to="-19359754#9" fromLane="0" toLane="1" tl="457780251" linkIndex="0"/>
    <connection from="-19354528#6" to="-19354528#5" fromLane="0" toLane="0" tl="457780251" linkIndex="1"/>
    <connection from="-19354528#6" to="-19354528#5" fromLane="1" toLane="1" tl="457780251" linkIndex="2"/>
    <connection from="-19354558#0" to="-71474894" fromLane="1" toLane="1" tl="201153297" linkIndex="9"/>
    <connection from="-19354558#0" to="-65356877#1" fromLane="1" toLane="0" tl="201153297" linkIndex="10"/>
    <connection from="-19354558#0" to="288107045#0" fromLane="1" toLane="1" tl="201153297" linkIndex="11"/>
    <connection from="-19354681#1" to="-19354681#0" fromLane="1" toLane="1" tl="201165821" linkIndex="1"/>
    <connection from="-19354681#2" to="-19354681#1" fromLane="1" toLane="1" tl="201164995" linkIndex="1"/>
    <connection from="-19355393" to="19355546#0" fromLane="0" toLane="0" tl="201176241" linkIndex="0"/>
    <connection from="-19355546#0" to="19355393" fromLane="0" toLane="0" tl="201176241" linkIndex="1"/>
    <connection from="-19356099#0" to="-617523920#3" fromLane="1" toLane="1" tl="457779811" linkIndex="0"/>
    <connection from="-19356099#0" to="19356382#0" fromLane="1" toLane="1" tl="457779811" linkIndex="1"/>
    <connection from="-19356099#0" to="19352484#0" fromLane="2" toLane="1" tl="457779811" linkIndex="2"/>
    <connection from="-19356099#6" to="-19356099#5" fromLane="1" toLane="1" tl="4134950807" linkIndex="2"/>
    <connection from="-19356099#6" to="-19356099#5" fromLane="2" toLane="2" tl="4134950807" linkIndex="3"/>
    <connection from="-19356382#0" to="19352484#0" fromLane="1" toLane="1" tl="457779811" linkIndex="6"/>
    <connection from="-19356382#0" to="19356099#0" fromLane="1" toLane="2" tl="457779811" linkIndex="7"/>
    <connection from="-19356382#0" to="-617523920#3" fromLane="1" toLane="1" tl="457779811" linkIndex="8"/>
    <connection from="-19356918" to="19354528#5" fromLane="1" toLane="0" tl="457780257" linkIndex="3"/>
    <connection from="-19356918" to="-19354528#4" fromLane="1" toLane="1" tl="457780257" linkIndex="4"/>
    <connection from="-19357711#0" to="-411916237#4" fromLane="1" toLane="1" tl="457780846" linkIndex="11"/>
    <connection from="-19357711#0" to="19359058#0" fromLane="1" toLane="0" tl="457780846" linkIndex="12"/>
    <connection from="-19357711#0" to="411916237#5" fromLane="1" toLane="2" tl="457780846" linkIndex="13"/>
    <connection from="-19357749#0" to="596628193#3" fromLane="0" toLane="0" tl="201163021" linkIndex="3"/>
    <connection from="-19357749#0" to="-596628193#2" fromLane="0" toLane="1" tl="201163021" linkIndex="4"/>
    <connection from="-19357914" to="596628193#13" fromLane="0" toLane="0" tl="201163129" linkIndex="0"/>
    <connection from="-19357914" to="-596628193#12" fromLane="0" toLane="1" tl="201163129" linkIndex="1"/>
    <connection from="-19358107#5" to="-19358107#4" fromLane="0" toLane="0" tl="201258396" linkIndex="0"/>
    <connection from="-19359058#0" to="411916237#5" fromLane="0" toLane="1" tl="457780846" linkIndex="4"/>
    <connection from="-19359058#0" to="19357711#0" fromLane="0" toLane="1" tl="457780846" linkIndex="5"/>
    <connection from="-19359058#0" to="-411916237#4" fromLane="0" toLane="2" tl="457780846" linkIndex="6"/>
    <connection from="-19359349#0" to="570946958#1" fromLane="1" toLane="1" tl="201185421" linkIndex="3"/>
    <connection from="-19359349#0" to="-570946958#0" fromLane="1" toLane="2" tl="201185421" linkIndex="4"/>
    <connection from="-19359609#0" to="-411934540#7" fromLane="0" toLane="1" tl="201186196" linkIndex="6"/>
    <connection from="-19359609#0" to="411934540#8" fromLane="0" toLane="1" tl="201186196" linkIndex="7"/>
    <connection from="-19359669#0" to="-661055495#0" fromLane="1" toLane="1" tl="201185717" linkIndex="11"/>
    <connection from="-19359669#0" to="19354123#0" fromLane="1" toLane="1" tl="201185717" linkIndex="12"/>
    <connection from="-19359669#0" to="661055495#1" fromLane="1" toLane="1" tl="201185717" linkIndex="13"/>
    <connection from="-19360420#0" to="71472729#4" fromLane="0" toLane="1" tl="joinedS_2" linkIndex="8"/>
    <connection from="-19360420#0" to="-19350562" fromLane="0" toLane="1" tl="joinedS_2" linkIndex="9"/>
    <connection from="-19361102#0" to="596583374#2" fromLane="1" toLane="1" tl="201162718" linkIndex="3"/>
    <connection from="-19361102#0" to="-596583374#1" fromLane="1" toLane="2" tl="201162718" linkIndex="4"/>
    <connection from="-19361401#1" to="-19361401#0" fromLane="0" toLane="0" tl="201258413" linkIndex="1"/>
    <connection from="-28077306#1" to="-28077306#0" fromLane="1" toLane="1" tl="201206997" linkIndex="1"/>
    <connection from="-288107045#0" to="19354558#0" fromLane="1" toLane="1" tl="201153297" linkIndex="0"/>
    <connection from="-288107045#0" to="-71474894" fromLane="1" toLane="1" tl="201153297" linkIndex="1"/>
    <connection from="-288107045#0" to="-65356877#1" fromLane="1" toLane="0" tl="201153297" linkIndex="2"/>
    <connection from="-325263049#1" to="-325263049#0" fromLane="0" toLane="0" tl="4552198780" linkIndex="1"/>
    <connection from="-410216581#1" to="-410216581#0" fromLane="0" toLane="0" tl="5785663180" linkIndex="1"/>
    <connection from="-410236179#0" to="627046441#1" fromLane="1" toLane="1" tl="4120774192" linkIndex="3"/>
    <connection from="-410236179#0" to="-627046441#0" fromLane="1" toLane="2" tl="4120774192" linkIndex="4"/>
    <connection from="-410261524" to="-661055461#0" fromLane="1" toLane="1" tl="201162663" linkIndex="6"/>
    <connection from="-410261524" to="661055461#1" fromLane="1" toLane="2" tl="201162663" linkIndex="7"/>
    <connection from="-411916184" to="-570946958#4" fromLane="1" toLane="1" tl="4134951125" linkIndex="12"/>
    <connection from="-411916184" to="511384980" fromLane="1" toLane="1" tl="4134951125" linkIndex="13"/>
    <connection from="-411916184" to="570946958#5" fromLane="1" toLane="2" tl="4134951125" linkIndex="14"/>
    <connection from="-411916199#4" to="570946957#6" fromLane="1" toLane="1" tl="4134950971" linkIndex="11"/>
    <connection from="-411916199#4" to="-411916199#3" fromLane="1" toLane="1" tl="4134950971" linkIndex="12"/>
    <connection from="-411916199#4" to="-570946957#5" fromLane="1" toLane="2" tl="4134950971" linkIndex="13"/>
    <connection from="-411916237#5" to="19357711#0" fromLane="1" toLane="1" tl="457780846" linkIndex="0"/>
    <connection from="-411916237#5" to="-411916237#4" fromLane="1" toLane="1" tl="457780846" linkIndex="1"/>
    <connection from="-411916237#5" to="-411916237#4" fromLane="2" toLane="2" tl="457780846" linkIndex="2"/>
    <connection from="-411916237#5" to="19359058#0" fromLane="2" toLane="0" tl="457780846" linkIndex="3"/>
    <connection from="-411916245#0" to="-440891632#1" fromLane="1" toLane="1" tl="201185310" linkIndex="5"/>
    <connection from="-411916245#0" to="-661055462" fromLane="1" toLane="1" tl="201185310" linkIndex="6"/>
    <connection from="-411916245#0" to="-661055462" fromLane="2" toLane="2" tl="201185310" linkIndex="7"/>
    <connection from="-411934540#8" to="19359609#0" fromLane="1" toLane="0" tl="201186196" linkIndex="0"/>
    <connection from="-411934540#8" to="-411934540#7" fromLane="1" toLane="1" tl="201186196" linkIndex="1"/>
    <connection from="-411934540#8" to="-411934540#7" fromLane="2" toLane="2" tl="201186196" linkIndex="2"/>
    <connection from="-440717065#0" to="661061474#0" fromLane="1" toLane="1" tl="201125350" linkIndex="2"/>
    <connection from="-440717065#0" to="-492477207#6" fromLane="1" toLane="1" tl="201125350" linkIndex="3"/>
    <connection from="-440717081#0" to="-570938685" fromLane="1" toLane="1" tl="joinedS_3" linkIndex="12"/>
    <connection from="-440717081#0" to="570938686#4" fromLane="1" toLane="2" tl="joinedS_3" linkIndex="13"/>
    <connection from="-440717081#1" to="661061487#1" fromLane="1" toLane="1" tl="joinedS_3" linkIndex="2"/>
    <connection from="-440717081#1" to="-440717081#0" fromLane="1" toLane="1" tl="joinedS_3" linkIndex="3"/>
    <connection from="-440891613#2" to="-440891613#1" fromLane="1" toLane="1" tl="201107309" linkIndex="0"/>
    <connection from="-440891613#2" to="-440891613#1" fromLane="2" toLane="2" tl="201107309" linkIndex="1"/>
    <connection from="-440891613#2" to="661601565" fromLane="2" toLane="0" tl="201107309" linkIndex="2"/>
    <connection from="-440891619#3" to="-19359349#19" fromLane="1" toLane="1" tl="201162687" linkIndex="0"/>
    <connection from="-440891619#3" to="-440891619#2" fromLane="1" toLane="1" tl="201162687" linkIndex="1"/>