<?xml version="1.0" encoding="UTF-8"?>

<!-- generated on 08/07/19 19:47:50 by Eclipse SUMO netconvert Version 1.2.0
<configuration xmlns:xsi="http://www.w3.org/2001/XMLSchema-instance" xsi:noNamespaceSchemaLocation="http://sumo.dlr.de/xsd/netconvertConfiguration.xsd">

    <input>
        <type-files value="./typemaps/netconvert.typ.xml"/>
        <polygon-files value="aquidneck_island_polys.pol.xml"/>
        <osm-files value="./osm_files/aquidneck_island.osm"/>
    </input>

    <output>
        <output-file value="aquidneck_island_baseline.net.xml"/>
        <plain-output-prefix value="./plain/baseline/aquidneck_island"/>
        <junctions.join-output value="./plain/baseline/aquidneck_island_junction_joins.xml"/>
    </output>

    <projection>
        <proj.utm value="true"/>
    </projection>

    <building_defaults>
        <default.speed value="11.18"/>
        <default.junctions.keep-clear value="false"/>
    </building_defaults>

    <tls_building>
        <tls.join value="true"/>
        <tls.default-type value="static"/>
    </tls_building>

    <junctions>
        <no-turnarounds.except-deadend value="true"/>
        <junctions.join value="false"/>
        <junctions.join-dist value="15"/>
    </junctions>

    <pedestrian>
        <crossings.guess value="false"/>
    </pedestrian>

    <formats>
        <osm.elevation value="true"/>
    </formats>

    <report>
        <message-log value="./logs/build_messages.txt"/>
        <error-log value="./logs/build_errors.txt"/>
    </report>

</configuration>
-->

<nodes version="1.1" xmlns:xsi="http://www.w3.org/2001/XMLSchema-instance" xsi:noNamespaceSchemaLocation="http://sumo.dlr.de/xsd/nodes_file.xsd">
    <location netOffset="-298290.21,-4591339.97" convBoundary="0.00,0.00,23820.78,26810.49" origBoundary="-71.557321,41.173469,-71.135527,41.816065" projParameter="+proj=utm +zone=19 +ellps=WGS84 +datum=WGS84 +units=m +no_defs"/>

    <node id="1178446888" x="20094.07" y="14148.45" type="priority" keepClear="0"/>
    <node id="1178446937" x="20769.97" y="14580.56" type="priority" keepClear="0"/>
    <node id="1178446962" x="20393.03" y="13455.36" type="priority" keepClear="0"/>
    <node id="1178447010" x="20452.25" y="14523.40" type="priority" keepClear="0"/>
    <node id="1178447024" x="20165.50" y="13342.68" type="right_before_left" keepClear="0"/>
    <node id="1178447028" x="20755.32" y="13751.04" type="right_before_left" keepClear="0"/>
    <node id="1178447062" x="20156.66" y="14245.29" type="priority" keepClear="0"/>
    <node id="1178447094" x="20085.90" y="14344.57" type="right_before_left" keepClear="0"/>
    <node id="1178447228" x="20023.18" y="14662.63" type="priority" keepClear="0"/>
    <node id="1178447251" x="20668.89" y="14327.92" type="right_before_left" keepClear="0"/>
    <node id="1373446061" x="8469.91" y="6280.84" type="priority" keepClear="0"/>
    <node id="1373446066" x="13672.99" y="16891.54" type="priority" keepClear="0"/>
    <node id="1461316072" x="9895.59" y="3833.18" type="priority" keepClear="0"/>
    <node id="1496757820" x="7181.03" y="14860.70" type="priority" keepClear="0"/>
    <node id="1496757845" x="7984.67" y="15046.56" type="priority" keepClear="0"/>
    <node id="1496757858" x="7909.39" y="15093.28" type="right_before_left" keepClear="0"/>
    <node id="1496757860" x="7313.44" y="15159.67" type="priority" keepClear="0"/>
    <node id="1496757883" x="7145.32" y="15281.08" type="right_before_left" keepClear="0"/>
    <node id="1496757892" x="6993.48" y="15291.37" type="right_before_left" keepClear="0"/>
    <node id="1496757923" x="7613.79" y="15331.29" type="priority" keepClear="0"/>
    <node id="1496757945" x="6989.08" y="15373.72" type="right_before_left" keepClear="0"/>
    <node id="1496757972" x="7495.27" y="15381.68" type="priority" keepClear="0"/>
    <node id="1496757974" x="8394.02" y="15368.18" type="right_before_left" keepClear="0"/>
    <node id="1496758002" x="8055.98" y="15477.49" type="priority" keepClear="0"/>
    <node id="1496758008" x="8928.63" y="15493.73" type="right_before_left" keepClear="0"/>
    <node id="1496758033" x="8716.90" y="15569.66" type="priority" keepClear="0"/>
    <node id="1496758073" x="8898.97" y="15914.21" type="right_before_left" keepClear="0"/>
    <node id="1496758090" x="9030.11" y="16288.13" type="priority" keepClear="0"/>
    <node id="1496758091" x="9064.46" y="17954.16" type="dead_end" keepClear="0"/>
    <node id="1496758092" x="9025.36" y="17963.85" type="right_before_left" keepClear="0"/>
    <node id="1496758101" x="8830.83" y="18013.17" type="dead_end" keepClear="0"/>
    <node id="1500066634" x="19786.26" y="14922.77" type="right_before_left" keepClear="0"/>
    <node id="1500066663" x="19542.07" y="14734.70" type="priority" keepClear="0"/>
    <node id="1500066682" x="19649.45" y="14805.09" type="right_before_left" keepClear="0"/>
    <node id="1500074317" x="19588.90" y="14675.56" type="priority" keepClear="0"/>
    <node id="1500074333" x="19716.61" y="14665.19" type="right_before_left" keepClear="0"/>
    <node id="1500074335" x="19834.14" y="14712.15" type="priority" keepClear="0"/>
    <node id="1579919945" x="1386.21" y="230.18" type="priority" keepClear="0"/>
    <node id="1579919949" x="1308.91" y="256.25" type="priority" keepClear="0"/>
    <node id="1579919976" x="1435.13" y="315.76" type="priority" keepClear="0"/>
    <node id="1579920001" x="1285.60" y="375.42" type="priority" keepClear="0"/>
    <node id="1579920033" x="1621.04" y="484.29" type="priority" keepClear="0"/>
    <node id="1579920066" x="1657.18" y="541.65" type="priority" keepClear="0"/>
    <node id="1579920156" x="1424.00" y="855.22" type="right_before_left" keepClear="0"/>
    <node id="1585038452" x="20934.09" y="20742.00" type="priority" keepClear="0"/>
    <node id="1634804778" x="17774.93" y="20763.70" type="priority" keepClear="0"/>
    <node id="1634818428" x="17832.42" y="20331.85" type="priority" keepClear="0"/>
    <node id="1634820939" x="15774.00" y="20251.57" type="priority" keepClear="0"/>
    <node id="1634820941" x="15595.83" y="20325.21" type="priority" keepClear="0"/>
    <node id="1634820943" x="15654.69" y="20254.44" type="priority" keepClear="0"/>
    <node id="1746179809" x="20287.69" y="14425.19" type="right_before_left" keepClear="0"/>
    <node id="1746179810" x="20354.78" y="14396.23" type="right_before_left" keepClear="0"/>
    <node id="1746180417" x="19960.14" y="15979.04" type="priority" keepClear="0"/>
    <node id="1746180421" x="20186.19" y="15980.56" type="priority" keepClear="0"/>
    <node id="1746184581" x="20270.27" y="14342.20" type="priority" keepClear="0"/>
    <node id="1924047473" x="7218.02" y="1417.60" type="priority" keepClear="0"/>
    <node id="1924047474" x="7130.97" y="1435.00" type="priority" keepClear="0"/>
    <node id="1924047522" x="7102.40" y="1512.68" type="priority" keepClear="0"/>
    <node id="1924047524" x="7315.85" y="1517.27" type="priority" keepClear="0"/>
    <node id="1924047526" x="7341.71" y="1597.69" type="priority" keepClear="0"/>
    <node id="1924067307" x="8687.60" y="610.35" type="priority" keepClear="0"/>
    <node id="1924067308" x="8726.75" y="616.53" type="priority" keepClear="0"/>
    <node id="1924067378" x="9395.17" y="1066.06" type="dead_end" keepClear="0"/>
    <node id="1924067380" x="9401.20" y="1054.59" type="dead_end" keepClear="0"/>
    <node id="1924067398" x="9322.83" y="1250.89" type="dead_end" keepClear="0"/>
    <node id="1924067401" x="9312.58" y="1287.06" type="dead_end" keepClear="0"/>
    <node id="1924067428" x="9468.27" y="1818.20" type="dead_end" keepClear="0"/>
    <node id="1924067467" x="9883.46" y="1990.28" type="dead_end" keepClear="0"/>
    <node id="1924067473" x="9929.41" y="2074.16" type="dead_end" keepClear="0"/>
    <node id="1924067485" x="9869.62" y="2238.12" type="dead_end" keepClear="0"/>
    <node id="1934475331" x="13254.43" y="8663.83" type="dead_end" keepClear="0"/>
    <node id="1951554794" x="20559.04" y="23894.90" type="priority" keepClear="0"/>
    <node id="1958765448" x="8230.00" y="1388.01" type="priority" keepClear="0"/>
    <node id="1975910886" x="1329.73" y="980.17" type="dead_end" keepClear="0"/>
    <node id="1975910891" x="1281.86" y="978.56" type="dead_end" keepClear="0"/>
    <node id="1975910985" x="1476.37" y="1053.38" type="dead_end" keepClear="0"/>
    <node id="1975911547" x="1224.86" y="780.48" type="dead_end" keepClear="0"/>
    <node id="1975912105" x="1250.88" y="634.85" type="dead_end" keepClear="0"/>
    <node id="1975912107" x="1326.73" y="615.94" type="priority" keepClear="0"/>
    <node id="1985017072" x="19092.71" y="8792.21" type="priority" keepClear="0"/>
    <node id="1985017099" x="12634.36" y="9529.24" type="priority" keepClear="0"/>
    <node id="1985017105" x="12481.66" y="9651.49" type="right_before_left" keepClear="0"/>
    <node id="1985017120" x="12415.64" y="9775.10" type="priority" keepClear="0"/>
    <node id="1985017126" x="12180.21" y="10028.72" type="priority" keepClear="0"/>
    <node id="201004053" x="13239.22" y="22093.03" type="priority" keepClear="0"/>
    <node id="201004060" x="12991.13" y="22041.99" type="right_before_left" keepClear="0"/>
    <node id="201004140" x="10161.56" y="22150.08" type="priority" keepClear="0"/>
    <node id="201004146" x="10162.60" y="22189.05" type="right_before_left" keepClear="0"/>
    <node id="201005288" x="13507.29" y="22117.07" type="right_before_left" keepClear="0"/>
    <node id="201005301" x="13541.71" y="21990.54" type="right_before_left" keepClear="0"/>
    <node id="201005364" x="13585.73" y="21632.06" type="priority" keepClear="0"/>
    <node id="201005421" x="13526.57" y="21461.06" type="priority" keepClear="0"/>
    <node id="201005452" x="13636.53" y="22129.66" type="right_before_left" keepClear="0"/>
    <node id="201005457" x="13539.80" y="22122.32" type="priority" keepClear="0"/>
    <node id="201005469" x="13266.31" y="22080.97" type="priority" keepClear="0"/>
    <node id="201005472" x="13259.24" y="22078.25" type="priority" keepClear="0"/>
    <node id="201005478" x="13614.18" y="22355.07" type="right_before_left" keepClear="0"/>
    <node id="201005644" x="13563.52" y="22387.07" type="right_before_left" keepClear="0"/>
    <node id="201005651" x="13464.22" y="22359.56" type="priority" keepClear="0"/>
    <node id="201006073" x="10148.75" y="22528.54" type="right_before_left" keepClear="0"/>
    <node id="201006100" x="10215.26" y="22447.98" type="priority" keepClear="0"/>
    <node id="201007528" x="13731.74" y="22643.54" type="right_before_left" keepClear="0"/>
    <node id="201007542" x="13372.16" y="22338.09" type="right_before_left" keepClear="0"/>
    <node id="201008311" x="12987.37" y="22041.54" type="priority" keepClear="0"/>
    <node id="201010260" x="13108.85" y="21777.57" type="right_before_left" keepClear="0"/>
    <node id="201010279" x="13322.66" y="21833.51" type="priority" keepClear="0"/>
    <node id="201010284" x="13336.78" y="21838.03" type="priority" keepClear="0"/>
    <node id="201013643" x="10802.95" y="24079.99" type="priority" keepClear="0"/>
    <node id="201013828" x="10264.29" y="22973.57" type="right_before_left" keepClear="0"/>
    <node id="201015247" x="13244.35" y="22072.56" type="priority" keepClear="0"/>
    <node id="201015255" x="13243.70" y="22117.58" type="priority" keepClear="0"/>
    <node id="201015261" x="13249.44" y="22150.98" type="priority" keepClear="0"/>
    <node id="201015272" x="13300.22" y="22260.98" type="priority" keepClear="0"/>
    <node id="201015285" x="13268.05" y="22054.49" type="priority" keepClear="0"/>
    <node id="201015305" x="13328.64" y="22328.01" type="priority" keepClear="0"/>
    <node id="201015496" x="13362.52" y="26810.49" type="priority" keepClear="0"/>
    <node id="201021969" x="9960.67" y="22840.56" type="priority" keepClear="0"/>
    <node id="201021972" x="9965.79" y="22841.98" type="right_before_left" keepClear="0"/>
    <node id="201027788" x="13190.40" y="22293.08" type="priority" keepClear="0"/>
    <node id="201027792" x="13257.64" y="22311.98" type="right_before_left" keepClear="0"/>
    <node id="201028067" x="13101.69" y="22643.52" type="priority" keepClear="0"/>
    <node id="201028075" x="13224.61" y="22675.51" type="right_before_left" keepClear="0"/>
    <node id="201028078" x="13249.50" y="22681.08" type="priority" keepClear="0"/>
    <node id="201031118" x="13119.51" y="21504.52" type="right_before_left" keepClear="0"/>
    <node id="201031141" x="13172.09" y="21498.02" type="priority" keepClear="0"/>
    <node id="201031150" x="13012.86" y="21755.98" type="right_before_left" keepClear="0"/>
    <node id="201031163" x="13034.57" y="21604.90" type="priority" keepClear="0"/>
    <node id="201032149" x="13283.29" y="21400.55" type="priority" keepClear="0"/>
    <node id="201036266" x="13155.93" y="22944.77" type="priority" keepClear="0"/>
    <node id="201036268" x="13184.42" y="22839.56" type="right_before_left" keepClear="0"/>
    <node id="201037443" x="13320.68" y="22871.98" type="priority" keepClear="0"/>
    <node id="201038506" x="13101.15" y="21776.55" type="right_before_left" keepClear="0"/>
    <node id="201038538" x="12907.96" y="21899.52" type="priority" keepClear="0"/>
    <node id="201039974" x="13290.92" y="22465.55" type="right_before_left" keepClear="0"/>
    <node id="201039978" x="13362.91" y="22518.99" type="priority" keepClear="0"/>
    <node id="201040949" x="13132.54" y="21880.06" type="priority" keepClear="0"/>
    <node id="201040952" x="13129.16" y="21875.03" type="right_before_left" keepClear="0"/>
    <node id="201041346" x="13148.32" y="22458.08" type="priority" keepClear="0"/>
    <node id="201044972" x="12979.39" y="23132.64" type="priority" keepClear="0"/>
    <node id="201045673" x="13391.60" y="22644.02" type="priority" keepClear="0"/>
    <node id="201047280" x="13220.29" y="22171.52" type="priority" keepClear="0"/>
    <node id="201047293" x="13040.12" y="22887.58" type="right_before_left" keepClear="0"/>
    <node id="201047297" x="13029.18" y="22930.98" type="priority" keepClear="0"/>
    <node id="201047331" x="13273.50" y="22018.02" type="priority" keepClear="0"/>
    <node id="201047418" x="13350.80" y="21774.32" type="priority" keepClear="0"/>
    <node id="201047429" x="13402.50" y="21516.95" type="priority" keepClear="0"/>
    <node id="201047475" x="13341.01" y="21758.03" type="priority" keepClear="0"/>
    <node id="201049566" x="13088.35" y="22926.92" type="priority" keepClear="0"/>
    <node id="201059098" x="18047.66" y="21376.93" type="priority" keepClear="0"/>
    <node id="201059107" x="18037.99" y="21343.96" type="right_before_left" keepClear="0"/>
    <node id="201059111" x="18022.56" y="21288.47" type="right_before_left" keepClear="0"/>
    <node id="201059115" x="18014.84" y="21260.00" type="right_before_left" keepClear="0"/>
    <node id="201059119" x="17998.67" y="21201.53" type="right_before_left" keepClear="0"/>
    <node id="201059123" x="17990.41" y="21174.96" type="right_before_left" keepClear="0"/>
    <node id="201059127" x="17964.07" y="21090.42" type="right_before_left" keepClear="0"/>
    <node id="201059135" x="17938.33" y="21002.97" type="priority" keepClear="0"/>
    <node id="201059157" x="3442.08" y="9806.51" type="right_before_left" keepClear="0"/>
    <node id="201059165" x="3438.70" y="9983.94" type="priority" keepClear="0"/>
    <node id="201059175" x="3432.06" y="10852.50" type="right_before_left" keepClear="0"/>
    <node id="201059184" x="3431.67" y="10559.49" type="right_before_left" keepClear="0"/>
    <node id="201059195" x="10023.23" y="5105.45" type="priority" keepClear="0"/>
    <node id="201059197" x="10023.16" y="5027.03" type="priority" keepClear="0"/>
    <node id="201059201" x="8130.77" y="5638.44" type="priority" keepClear="0"/>
    <node id="201059220" x="8143.99" y="5704.53" type="right_before_left" keepClear="0"/>
    <node id="201059228" x="10919.20" y="7211.22" type="right_before_left" keepClear="0"/>
    <node id="201059244" x="10943.57" y="7148.72" type="priority" keepClear="0"/>
    <node id="201059261" x="18209.25" y="4903.94" type="right_before_left" keepClear="0"/>
    <node id="201059284" x="18229.48" y="4697.44" type="right_before_left" keepClear="0"/>
    <node id="201059300" x="18247.54" y="4481.45" type="priority" keepClear="0"/>
    <node id="201059317" x="11239.80" y="11533.51" type="right_before_left" keepClear="0"/>
    <node id="201059329" x="11278.48" y="11553.93" type="priority" keepClear="0"/>
    <node id="201059342" x="9271.97" y="5561.02" type="priority" keepClear="0"/>
    <node id="201059394" x="9390.17" y="5429.42" type="priority" keepClear="0"/>
    <node id="201059407" x="15089.83" y="13808.45" type="right_before_left" keepClear="0"/>
    <node id="201059413" x="15046.20" y="13795.47" type="priority" keepClear="0"/>
    <node id="201059425" x="16653.35" y="20560.97" type="priority" keepClear="0"/>
    <node id="201059441" x="16709.45" y="20421.46" type="priority" keepClear="0"/>
    <node id="201059484" x="16802.06" y="20188.42" type="priority" keepClear="0"/>
    <node id="201059488" x="16803.10" y="20180.51" type="priority" keepClear="0"/>
    <node id="201059512" x="9142.28" y="3279.96" type="right_before_left" keepClear="0"/>
    <node id="201059519" x="9209.81" y="3230.50" type="right_before_left" keepClear="0"/>
    <node id="201059534" x="4068.76" y="12747.96" type="priority" keepClear="0"/>
    <node id="201059566" x="4063.64" y="12840.99" type="priority" keepClear="0"/>
    <node id="201059592" x="10530.51" y="6975.51" type="priority" keepClear="0"/>
    <node id="201059596" x="10574.09" y="6984.47" type="priority" keepClear="0"/>
    <node id="201059604" x="10396.18" y="9500.03" type="priority" keepClear="0"/>
    <node id="201059621" x="10401.46" y="9626.44" type="right_before_left" keepClear="0"/>
    <node id="201059628" x="10405.72" y="9658.67" type="right_before_left" keepClear="0"/>
    <node id="201059660" x="10536.29" y="9642.53" type="traffic_light" tl="201059660" keepClear="0"/>
    <node id="201059668" x="7178.60" y="15067.49" type="right_before_left" keepClear="0"/>
    <node id="201059703" x="7142.62" y="15054.02" type="priority" keepClear="0"/>
    <node id="201059770" x="7189.32" y="14945.53" type="right_before_left" keepClear="0"/>
    <node id="201059973" x="7820.13" y="14925.94" type="right_before_left" keepClear="0"/>
    <node id="201060046" x="11867.63" y="6758.82" type="right_before_left" keepClear="0"/>
    <node id="201060066" x="13817.12" y="14843.43" type="priority" keepClear="0"/>
    <node id="201060086" x="13974.13" y="14812.00" type="priority" keepClear="0"/>
    <node id="201060098" x="11838.30" y="6759.94" type="priority" keepClear="0"/>
    <node id="201060108" x="4327.33" y="6872.00" type="priority" keepClear="0"/>
    <node id="201060112" x="4320.17" y="6866.53" type="priority" keepClear="0"/>
    <node id="201060153" x="4339.52" y="6755.99" type="priority" keepClear="0"/>
    <node id="201060163" x="9091.67" y="6753.93" type="right_before_left" keepClear="0"/>
    <node id="201060168" x="9055.37" y="6852.01" type="right_before_left" keepClear="0"/>
    <node id="201060171" x="8431.52" y="2947.96" type="priority" keepClear="0"/>
    <node id="201060172" x="8427.07" y="3043.97" type="right_before_left" keepClear="0"/>
    <node id="201060175" x="8424.55" y="3090.48" type="right_before_left" keepClear="0"/>
    <node id="201060184" x="6434.96" y="2896.36" type="right_before_left" keepClear="0"/>
    <node id="201060236" x="6432.31" y="2891.32" type="priority" keepClear="0"/>
    <node id="201060247" x="13477.04" y="15611.96" type="right_before_left" keepClear="0"/>
    <node id="201060272" x="13903.64" y="15645.47" type="priority" keepClear="0"/>
    <node id="201060285" x="9337.65" y="3650.52" type="priority" keepClear="0"/>
    <node id="201060289" x="9342.95" y="3632.94" type="priority" keepClear="0"/>
    <node id="201060339" x="13684.15" y="6749.48" type="priority" keepClear="0"/>
    <node id="201060348" x="13775.55" y="6740.98" type="right_before_left" keepClear="0"/>
    <node id="201060354" x="8591.98" y="6796.96" type="right_before_left" keepClear="0"/>
    <node id="201060380" x="8619.09" y="6761.45" type="right_before_left" keepClear="0"/>
    <node id="201060384" x="8680.70" y="6826.03" type="priority" keepClear="0"/>
    <node id="201060397" x="9121.29" y="6765.47" type="right_before_left" keepClear="0"/>
    <node id="201060400" x="9133.78" y="6732.47" type="priority" keepClear="0"/>
    <node id="201060405" x="19601.68" y="21275.24" type="priority" keepClear="0"/>
    <node id="201060408" x="19618.82" y="21266.79" type="right_before_left" keepClear="0"/>
    <node id="201060421" x="19787.48" y="21208.52" type="priority" keepClear="0"/>
    <node id="201060435" x="12762.57" y="15523.48" type="priority" keepClear="0"/>
    <node id="201060451" x="12913.26" y="15515.97" type="priority" keepClear="0"/>
    <node id="201060474" x="7517.14" y="6913.37" type="priority" keepClear="0"/>
    <node id="201060482" x="7470.74" y="6923.59" type="right_before_left" keepClear="0"/>
    <node id="201060543" x="7435.06" y="7058.49" type="right_before_left" keepClear="0"/>
    <node id="201060557" x="8960.44" y="2749.19" type="priority" keepClear="0"/>
    <node id="201060558" x="8959.63" y="2785.19" type="priority" keepClear="0"/>
    <node id="201060634" x="12001.95" y="6885.43" type="right_before_left" keepClear="0"/>
    <node id="201060704" x="11992.98" y="6985.41" type="right_before_left" keepClear="0"/>
    <node id="201060753" x="7541.89" y="6685.68" type="right_before_left" keepClear="0"/>
    <node id="201060757" x="7546.10" y="6713.67" type="right_before_left" keepClear="0"/>
    <node id="201060770" x="7554.37" y="6762.94" type="right_before_left" keepClear="0"/>
    <node id="201060780" x="7559.40" y="6796.66" type="right_before_left" keepClear="0"/>
    <node id="201060796" x="7574.29" y="6888.51" type="priority" keepClear="0"/>
    <node id="201060805" x="7585.61" y="6952.43" type="priority" keepClear="0"/>
    <node id="201060824" x="9902.25" y="3595.50" type="priority" keepClear="0"/>
    <node id="201060828" x="9911.60" y="3552.00" type="right_before_left" keepClear="0"/>
    <node id="201060832" x="9917.07" y="3505.44" type="priority" keepClear="0"/>
    <node id="201060852" x="18782.10" y="16401.87" type="priority" keepClear="0"/>
    <node id="201060855" x="18811.37" y="16401.90" type="priority" keepClear="0"/>
    <node id="201060864" x="12415.92" y="16398.02" type="priority" keepClear="0"/>
    <node id="201060886" x="12451.23" y="16532.42" type="right_before_left" keepClear="0"/>
    <node id="201060904" x="12458.53" y="16591.01" type="right_before_left" keepClear="0"/>
    <node id="201060910" x="12422.15" y="16612.52" type="priority" keepClear="0"/>
    <node id="201060922" x="7725.34" y="15728.95" type="priority" keepClear="0"/>
    <node id="201060949" x="7621.67" y="15355.52" type="right_before_left" keepClear="0"/>
    <node id="201060977" x="7560.21" y="15056.51" type="right_before_left" keepClear="0"/>
    <node id="201060988" x="6988.10" y="15650.26" type="priority" keepClear="0"/>
    <node id="201061051" x="7550.37" y="15378.00" type="priority" keepClear="0"/>
    <node id="201061070" x="7947.21" y="15270.52" type="priority" keepClear="0"/>
    <node id="201061086" x="17650.54" y="21113.01" type="priority" keepClear="0"/>
    <node id="201061148" x="17585.78" y="20918.01" type="right_before_left" keepClear="0"/>
    <node id="201061159" x="7969.09" y="15373.49" type="priority" keepClear="0"/>
    <node id="201061194" x="8279.29" y="15267.02" type="priority" keepClear="0"/>
    <node id="201061204" x="8353.20" y="15173.92" type="right_before_left" keepClear="0"/>
    <node id="201061214" x="8406.20" y="15084.94" type="right_before_left" keepClear="0"/>
    <node id="201061221" x="8457.17" y="14995.02" type="right_before_left" keepClear="0"/>
    <node id="201061229" x="8513.81" y="14898.49" type="right_before_left" keepClear="0"/>
    <node id="201061259" x="8426.46" y="14715.32" type="priority" keepClear="0"/>
    <node id="201061308" x="8114.45" y="14557.01" type="priority" keepClear="0"/>
    <node id="201061325" x="8051.38" y="14507.48" type="right_before_left" keepClear="0"/>
    <node id="201061345" x="8286.63" y="15136.49" type="priority" keepClear="0"/>
    <node id="201061401" x="8577.80" y="6816.45" type="right_before_left" keepClear="0"/>
    <node id="201061414" x="8585.04" y="6871.48" type="right_before_left" keepClear="0"/>
    <node id="201061419" x="8593.52" y="6879.47" type="right_before_left" keepClear="0"/>
    <node id="201061440" x="8558.94" y="6966.51" type="right_before_left" keepClear="0"/>
    <node id="201061450" x="8656.10" y="6980.46" type="priority" keepClear="0"/>
    <node id="201061694" x="18923.54" y="22511.94" type="priority" keepClear="0"/>
    <node id="201061718" x="18857.18" y="22526.96" type="priority" keepClear="0"/>
    <node id="201061729" x="11638.31" y="3486.02" type="priority" keepClear="0"/>
    <node id="201061737" x="11581.60" y="3461.51" type="priority" keepClear="0"/>
    <node id="201061746" x="4327.84" y="3465.01" type="right_before_left" keepClear="0"/>
    <node id="201061750" x="4335.67" y="3454.98" type="right_before_left" keepClear="0"/>
    <node id="201061758" x="4320.20" y="3446.49" type="right_before_left" keepClear="0"/>
    <node id="201061876" x="4152.31" y="3386.48" type="right_before_left" keepClear="0"/>
    <node id="201061941" x="4314.47" y="3451.51" type="right_before_left" keepClear="0"/>
    <node id="201061976" x="4335.36" y="3483.03" type="priority" keepClear="0"/>
    <node id="201062008" x="4661.18" y="3360.80" type="right_before_left" keepClear="0"/>
    <node id="201062083" x="4626.62" y="3353.25" type="right_before_left" keepClear="0"/>
    <node id="201062124" x="4529.11" y="3386.15" type="right_before_left" keepClear="0"/>
    <node id="201062160" x="4434.54" y="3424.76" type="right_before_left" keepClear="0"/>
    <node id="201062236" x="12576.99" y="16570.00" type="priority" keepClear="0"/>
    <node id="201062260" x="12555.79" y="16468.70" type="right_before_left" keepClear="0"/>
    <node id="201062265" x="12511.00" y="16392.52" type="right_before_left" keepClear="0"/>
    <node id="201062269" x="12472.55" y="16302.98" type="priority" keepClear="0"/>
    <node id="201062273" x="8155.12" y="7329.45" type="priority" keepClear="0"/>
    <node id="201062276" x="8174.92" y="7283.03" type="right_before_left" keepClear="0"/>
    <node id="201062284" x="8197.74" y="7230.97" type="right_before_left" keepClear="0"/>
    <node id="201062288" x="8760.04" y="3440.73" type="priority" keepClear="0"/>
    <node id="201062403" x="8616.92" y="3632.50" type="priority" keepClear="0"/>
    <node id="201062423" x="4253.76" y="7037.18" type="priority" keepClear="0"/>
    <node id="201062468" x="4198.17" y="7142.45" type="priority" keepClear="0"/>
    <node id="201062487" x="4217.18" y="7282.90" type="priority" keepClear="0"/>
    <node id="201062586" x="7344.43" y="3985.93" type="priority" keepClear="0"/>
    <node id="201062659" x="7387.45" y="4066.43" type="right_before_left" keepClear="0"/>
    <node id="201062690" x="7320.47" y="4089.01" type="right_before_left" keepClear="0"/>
    <node id="201062703" x="7340.10" y="6861.76" type="right_before_left" keepClear="0"/>
    <node id="201062720" x="7449.76" y="6858.40" type="right_before_left" keepClear="0"/>
    <node id="201062754" x="7500.01" y="6833.09" type="right_before_left" keepClear="0"/>
    <node id="201062758" x="7439.83" y="4094.02" type="right_before_left" keepClear="0"/>
    <node id="201062843" x="7411.33" y="3960.46" type="right_before_left" keepClear="0"/>
    <node id="201062926" x="7396.60" y="3766.97" type="right_before_left" keepClear="0"/>
    <node id="201063001" x="12077.54" y="3970.05" type="priority" keepClear="0"/>
    <node id="201063016" x="11963.42" y="3956.78" type="priority" keepClear="0"/>
    <node id="201063021" x="13172.35" y="16273.48" type="right_before_left" keepClear="0"/>
    <node id="201063024" x="13196.90" y="16261.95" type="priority" keepClear="0"/>
    <node id="201063032" x="14269.04" y="16288.02" type="priority" keepClear="0"/>
    <node id="201063038" x="14330.02" y="16256.43" type="right_before_left" keepClear="0"/>
    <node id="201063054" x="14404.84" y="16247.48" type="priority" keepClear="0"/>
    <node id="201063064" x="4076.57" y="7205.99" type="right_before_left" keepClear="0"/>
    <node id="201063087" x="4127.49" y="7366.49" type="priority" keepClear="0"/>
    <node id="201063145" x="4434.65" y="3333.47" type="right_before_left" keepClear="0"/>
    <node id="201063192" x="4369.87" y="3268.80" type="right_before_left" keepClear="0"/>
    <node id="201063335" x="3135.19" y="7197.52" type="priority" keepClear="0"/>
    <node id="201063362" x="3534.75" y="7197.97" type="priority" keepClear="0"/>
    <node id="201063374" x="9481.67" y="7188.51" type="priority" keepClear="0"/>
    <node id="201063379" x="9496.46" y="7192.01" type="right_before_left" keepClear="0"/>
    <node id="201063398" x="8620.98" y="6357.96" type="priority" keepClear="0"/>
    <node id="201063432" x="8663.29" y="6437.94" type="priority" keepClear="0"/>
    <node id="201063526" x="11860.89" y="3854.48" type="priority" keepClear="0"/>
    <node id="201063546" x="11944.47" y="3880.95" type="priority" keepClear="0"/>
    <node id="201063554" x="18106.44" y="16923.51" type="priority" keepClear="0"/>
    <node id="201063592" x="17985.81" y="16867.15" type="priority" keepClear="0"/>
    <node id="201063596" x="18757.44" y="22180.53" type="right_before_left" keepClear="0"/>
    <node id="201063634" x="18734.57" y="22081.01" type="priority" keepClear="0"/>
    <node id="201063670" x="9798.51" y="7360.96" type="priority" keepClear="0"/>