<?xml version="1.0" encoding="UTF-8"?>
<connections version="1.3" xmlns:xsi="http://www.w3.org/2001/XMLSchema-instance" xsi:noNamespaceSchemaLocation="http://sumo.dlr.de/xsd/connections_file.xsd">
    <!-- Deleted Elements -->
    <delete from="-19347475" fromLane="0" to="19352285#18" toLane="1"/>
    <delete from="-19347475" fromLane="0" to="-19352285#17" toLane="1"/>
    <delete from="-19347482" fromLane="0" to="-19356382#12" toLane="1"/>
    <delete from="-19347482" fromLane="0" to="19356382#13" toLane="1"/>
    <delete from="-19347880" fromLane="0" to="19353499#1" toLane="0"/>
    <delete from="-19350493" fromLane="0" to="19351916#2" toLane="2"/>
    <delete from="-19350571#0" fromLane="0" to="-19360420#0" toLane="0"/>
    <delete from="-19351696#0" fromLane="0" to="-440717065#1" toLane="1"/>
    <delete from="-19351696#0" fromLane="0" to="19354566#0" toLane="0"/>
    <delete from="-19351696#0" fromLane="0" to="440717065#2" toLane="1"/>
    <delete from="-19351696#1" fromLane="0" to="-19351696#0" toLane="0"/>
    <delete from="-19351696#6" fromLane="0" to="-19359279#1" toLane="0"/>
    <delete from="-19351696#6" fromLane="0" to="-19351696#5" toLane="0"/>
    <delete from="-19351696#6" fromLane="0" to="19359279#2" toLane="0"/>
    <delete from="-19351696#7" fromLane="0" to="-19351696#6" toLane="0"/>
    <delete from="-19351696#8" fromLane="0" to="-19351696#7" toLane="0"/>
    <delete from="-19351820" fromLane="0" to="-19357057#0" toLane="0"/>
    <delete from="-19351850" fromLane="0" to="-19357506#0" toLane="0"/>
    <delete from="-19351855" fromLane="0" to="19360459#5" toLane="0"/>
    <delete from="-19351855" fromLane="0" to="-19360459#4" toLane="0"/>
    <delete from="-19351857#0" fromLane="1" to="19354956#8" toLane="1"/>
    <delete from="-19351857#0" fromLane="1" to="-19354956#7" toLane="1"/>
    <delete from="-19351857#1" fromLane="1" to="-19351857#0" toLane="1"/>
    <delete from="-19351857#10" fromLane="1" to="19352285#13" toLane="1"/>
    <delete from="-19351857#10" fromLane="1" to="-19351857#9" toLane="1"/>
    <delete from="-19351857#10" fromLane="1" to="-19352285#12" toLane="1"/>
    <delete from="-19351857#11" fromLane="1" to="19361189#4" toLane="0"/>
    <delete from="-19351857#11" fromLane="1" to="-19351857#10" toLane="1"/>
    <delete from="-19351857#11" fromLane="1" to="-19361189#3" toLane="0"/>
    <delete from="-19351857#12" fromLane="1" to="-19351857#11" toLane="1"/>
    <delete from="-19351857#12" fromLane="1" to="-19358136#4" toLane="0"/>
    <delete from="-19351857#13" fromLane="1" to="-19351857#12" toLane="1"/>
    <delete from="-19351857#13" fromLane="1" to="-19351696#11" toLane="0"/>
    <delete from="-19351857#14" fromLane="1" to="19361060#11" toLane="0"/>
    <delete from="-19351857#14" fromLane="1" to="-19351857#13" toLane="1"/>
    <delete from="-19351857#14" fromLane="1" to="-19361060#10" toLane="0"/>
    <delete from="-19351857#15" fromLane="1" to="-19351857#14" toLane="1"/>
    <delete from="-19351857#2" fromLane="1" to="19361005#0" toLane="0"/>
    <delete from="-19351857#2" fromLane="1" to="-19351857#1" toLane="1"/>
    <delete from="-19351857#3" fromLane="1" to="-19354576#2" toLane="0"/>
    <delete from="-19351857#3" fromLane="1" to="-19351857#2" toLane="1"/>
    <delete from="-19351857#4" fromLane="1" to="-19351857#3" toLane="1"/>
    <delete from="-19351857#4" fromLane="1" to="19358151" toLane="0"/>
    <delete from="-19351857#5" fromLane="1" to="19360850#0" toLane="0"/>
    <delete from="-19351857#5" fromLane="1" to="-19351857#4" toLane="1"/>
    <delete from="-19351857#6" fromLane="1" to="-19351857#5" toLane="1"/>
    <delete from="-19351857#6" fromLane="1" to="19357495" toLane="0"/>
    <delete from="-19351857#7" fromLane="1" to="-19351857#6" toLane="1"/>
    <delete from="-19351857#9" fromLane="1" to="19360172#0" toLane="0"/>
    <delete from="-19351857#9" fromLane="1" to="-19351857#8" toLane="1"/>
    <delete from="-19351857#9" fromLane="1" to="19354007" toLane="0"/>
    <delete from="-19351883" fromLane="0" to="-19353092#2" toLane="0"/>
    <delete from="-19351883" fromLane="0" to="19353092#3" toLane="0"/>
    <delete from="-19351906" fromLane="1" to="-71472826" toLane="1"/>
    <delete from="-19351906" fromLane="1" to="610207981" toLane="0"/>
    <delete from="-19351906" fromLane="1" to="-560828708" toLane="1"/>
    <delete from="-19351910#0" fromLane="0" to="-19356224#1" toLane="0"/>
    <delete from="-19351910#0" fromLane="0" to="19356224#2" toLane="0"/>
    <delete from="-19351928" fromLane="2" to="19357408#0" toLane="2"/>
    <delete from="-19351995" fromLane="0" to="19357686" toLane="0"/>
    <delete from="-19351996#0" fromLane="0" to="288107045#4" toLane="1"/>
    <delete from="-19351996#1" fromLane="0" to="19355310#1" toLane="0"/>
    <delete from="-19352017#0" fromLane="1" to="-19355081#3" toLane="0"/>
    <delete from="-19352017#1" fromLane="1" to="19355750#0" toLane="0"/>
    <delete from="-19352017#2" fromLane="1" to="19357400" toLane="0"/>
    <delete from="-19352256#0" fromLane="0" to="19358272#6" toLane="1"/>
    <delete from="-19352256#1" fromLane="0" to="19352449#1" toLane="0"/>
    <delete from="-19352256#1" fromLane="0" to="-19352256#0" toLane="0"/>
    <delete from="-19352256#1" fromLane="0" to="-19352449#0" toLane="0"/>
    <delete from="-19352285#0" fromLane="1" to="19354745#0" toLane="0"/>
    <delete from="-19352285#1" fromLane="1" to="19359517#2" toLane="0"/>
    <delete from="-19352285#10" fromLane="1" to="-19356535#6" toLane="0"/>
    <delete from="-19352285#10" fromLane="1" to="19356535#7" toLane="0"/>
    <delete from="-19352285#11" fromLane="1" to="19354908" toLane="0"/>
    <delete from="-19352285#11" fromLane="1" to="-19352285#10" toLane="1"/>
    <delete from="-19352285#12" fromLane="1" to="-19352285#11" toLane="1"/>
    <delete from="-19352285#12" fromLane="1" to="-19352866" toLane="0"/>
    <delete from="-19352285#13" fromLane="1" to="-19351857#9" toLane="1"/>
    <delete from="-19352285#13" fromLane="1" to="-19352285#12" toLane="1"/>
    <delete from="-19352285#13" fromLane="1" to="19351857#10" toLane="1"/>
    <delete from="-19352285#14" fromLane="1" to="-19352285#13" toLane="1"/>
    <delete from="-19352285#14" fromLane="1" to="-19355596#1" toLane="0"/>
    <delete from="-19352285#15" fromLane="1" to="-19354575#3" toLane="0"/>
    <delete from="-19352285#15" fromLane="1" to="-19352285#14" toLane="1"/>
    <delete from="-19352285#16" fromLane="1" to="-19354903#1" toLane="0"/>
    <delete from="-19352285#16" fromLane="1" to="-19352285#15" toLane="1"/>
    <delete from="-19352285#17" fromLane="1" to="-19361081" toLane="0"/>
    <delete from="-19352285#17" fromLane="1" to="-19352285#16" toLane="1"/>
    <delete from="-19352285#18" fromLane="1" to="-19352285#17" toLane="1"/>
    <delete from="-19352285#18" fromLane="1" to="19347475" toLane="0"/>
    <delete from="-19352285#2" fromLane="1" to="19358038#1" toLane="0"/>
    <delete from="-19352285#4" fromLane="1" to="-19357385#7" toLane="0"/>
    <delete from="-19352285#5" fromLane="1" to="-19353092#5" toLane="0"/>
    <delete from="-19352285#5" fromLane="1" to="19353092#6" toLane="0"/>
    <delete from="-19352285#7" fromLane="1" to="-19357262#1" toLane="0"/>
    <delete from="-19352285#8" fromLane="1" to="19354710#0" toLane="0"/>
    <delete from="-19352285#9" fromLane="1" to="-19353810#5" toLane="0"/>
    <delete from="-19352325" fromLane="0" to="19352456#3" toLane="0"/>
    <delete from="-19352325" fromLane="0" to="-19352456#2" toLane="0"/>
    <delete from="-19352374#0" fromLane="0" to="-19353551#10" toLane="0"/>
    <delete from="-19352374#0" fromLane="0" to="19358140" toLane="0"/>
    <delete from="-19352433" fromLane="0" to="-71472970#2" toLane="1"/>
    <delete from="-19352433" fromLane="0" to="65356877#0" toLane="1"/>
    <delete from="-19352447" fromLane="0" to="-19356382#28" toLane="1"/>
    <delete from="-19352447" fromLane="0" to="19356382#29" toLane="1"/>
    <delete from="-19352449#0" fromLane="0" to="19353686#6" toLane="1"/>
    <delete from="-19352449#0" fromLane="0" to="-19353686#5" toLane="1"/>
    <delete from="-19352449#1" fromLane="0" to="-19352256#0" toLane="0"/>
    <delete from="-19352449#1" fromLane="0" to="-19352449#0" toLane="0"/>
    <delete from="-19352449#1" fromLane="0" to="19352256#1" toLane="0"/>
    <delete from="-19352456#0" fromLane="0" to="-516917086#10" toLane="1"/>
    <delete from="-19352456#0" fromLane="0" to="516917086#11" toLane="1"/>
    <delete from="-19352456#1" fromLane="0" to="-19359759#3" toLane="0"/>
    <delete from="-19352456#1" fromLane="0" to="-19352456#0" toLane="0"/>
    <delete from="-19352456#2" fromLane="0" to="-19352456#1" toLane="0"/>
    <delete from="-19352456#2" fromLane="0" to="19361209" toLane="0"/>
    <delete from="-19352456#3" fromLane="0" to="-19352456#2" toLane="0"/>
    <delete from="-19352456#3" fromLane="0" to="19352325" toLane="0"/>
    <delete from="-19352456#4" fromLane="0" to="-19356409#3" toLane="0"/>
    <delete from="-19352456#4" fromLane="0" to="-19352456#3" toLane="0"/>
    <delete from="-19352456#5" fromLane="0" to="-19356258#2" toLane="0"/>
    <delete from="-19352484#0" fromLane="1" to="19356382#0" toLane="1"/>
    <delete from="-19352621#0" fromLane="0" to="-19350832" toLane="0"/>
    <delete from="-19352621#1" fromLane="0" to="-19352621#0" toLane="0"/>
    <delete from="-19352621#1" fromLane="0" to="19352924#4" toLane="1"/>
    <delete from="-19352621#2" fromLane="0" to="19354435#6" toLane="1"/>
    <delete from="-19352621#2" fromLane="0" to="-19352621#1" toLane="0"/>
    <delete from="-19352671#0" fromLane="0" to="-492477207#3" toLane="1"/>
    <delete from="-19352671#0" fromLane="0" to="492477207#4" toLane="1"/>
    <delete from="-19352671#1" fromLane="0" to="-19352671#0" toLane="0"/>
    <delete from="-19352671#1" fromLane="0" to="19360046#2" toLane="0"/>
    <delete from="-19352679" fromLane="0" to="19360459#2" toLane="0"/>
    <delete from="-19352679" fromLane="0" to="-19360459#1" toLane="0"/>
    <delete from="-19352722" fromLane="0" to="261166138#30" toLane="1"/>
    <delete from="-19352768" fromLane="0" to="19360459#1" toLane="0"/>
    <delete from="-19352768" fromLane="0" to="-19360459#0" toLane="0"/>
    <delete from="-19352871#0" fromLane="0" to="19358688#1" toLane="0"/>
    <delete from="-19352871#0" fromLane="0" to="-19358688#0" toLane="0"/>
    <delete from="-19352871#1" fromLane="0" to="-19357105" toLane="0"/>
    <delete from="-19352893#0" fromLane="0" to="329995331#6" toLane="1"/>
    <delete from="-19352901#0" fromLane="0" to="-19356224#2" toLane="0"/>
    <delete from="-19352901#0" fromLane="0" to="19356224#3" toLane="0"/>
    <delete from="-19352909" fromLane="1" to="71472826" toLane="1"/>
    <delete from="-19353068" fromLane="0" to="19361431" toLane="0"/>
    <delete from="-19353092#0" fromLane="0" to="-19356382#23" toLane="1"/>
    <delete from="-19353092#0" fromLane="0" to="19356382#24" toLane="1"/>
    <delete from="-19353092#1" fromLane="0" to="-19353092#0" toLane="0"/>
    <delete from="-19353092#1" fromLane="0" to="19352270" toLane="0"/>
    <delete from="-19353092#2" fromLane="0" to="-19353092#1" toLane="0"/>
    <delete from="-19353092#2" fromLane="0" to="-19353461" toLane="0"/>
    <delete from="-19353092#3" fromLane="0" to="19351883" toLane="0"/>
    <delete from="-19353092#3" fromLane="0" to="-19353092#2" toLane="0"/>
    <delete from="-19353092#4" fromLane="0" to="19353591#0" toLane="0"/>
    <delete from="-19353092#4" fromLane="0" to="-19353092#3" toLane="0"/>
    <delete from="-19353092#5" fromLane="0" to="-19353092#4" toLane="0"/>
    <delete from="-19353092#5" fromLane="0" to="-19356262" toLane="0"/>
    <delete from="-19353092#6" fromLane="0" to="-19353092#5" toLane="0"/>
    <delete from="-19353092#8" fromLane="0" to="-19359753#1" toLane="0"/>
    <delete from="-19353264#0" fromLane="0" to="19350493" toLane="0"/>
    <delete from="-19353316" fromLane="0" to="19354319" toLane="0"/>
    <delete from="-19353322" fromLane="0" to="19357385#3" toLane="0"/>
    <delete from="-19353322" fromLane="0" to="-19357385#2" toLane="0"/>
    <delete from="-19353381" fromLane="0" to="-19358588#0" toLane="0"/>
    <delete from="-19353381" fromLane="0" to="19358588#1" toLane="0"/>
    <delete from="-19353461" fromLane="0" to="-19357385#1" toLane="0"/>
    <delete from="-19353461" fromLane="0" to="19357385#2" toLane="0"/>
    <delete from="-19353499#1" fromLane="0" to="-19353499#0" toLane="0"/>
    <delete from="-19353499#1" fromLane="0" to="19347880" toLane="0"/>
    <delete from="-19353506#0" fromLane="0" to="-19359786#8" toLane="1"/>
    <delete from="-19353506#0" fromLane="0" to="19359786#9" toLane="1"/>
    <delete from="-19353551#0" fromLane="0" to="19353686#2" toLane="1"/>
    <delete from="-19353551#0" fromLane="0" to="-19353686#1" toLane="1"/>
    <delete from="-19353551#1" fromLane="0" to="-19353551#0" toLane="0"/>
    <delete from="-19353551#10" fromLane="0" to="-19358441" toLane="0"/>
    <delete from="-19353551#10" fromLane="0" to="-19353551#9" toLane="0"/>
    <delete from="-19353551#2" fromLane="0" to="560756425" toLane="0"/>
    <delete from="-19353551#2" fromLane="0" to="-19353551#1" toLane="0"/>
    <delete from="-19353551#3" fromLane="0" to="19359495#0" toLane="0"/>
    <delete from="-19353551#3" fromLane="0" to="-19353551#2" toLane="0"/>
    <delete from="-19353551#4" fromLane="0" to="-19353551#3" toLane="0"/>
    <delete from="-19353551#5" fromLane="0" to="19356062#0" toLane="0"/>
    <delete from="-19353551#5" fromLane="0" to="-19353551#4" toLane="0"/>
    <delete from="-19353551#5" fromLane="0" to="-19355437" toLane="0"/>
    <delete from="-19353551#6" fromLane="0" to="-19353551#5" toLane="0"/>
    <delete from="-19353551#7" fromLane="0" to="-19353551#6" toLane="0"/>
    <delete from="-19353551#8" fromLane="0" to="19351859#0" toLane="0"/>
    <delete from="-19353551#8" fromLane="0" to="-19353551#7" toLane="0"/>
    <delete from="-19353551#9" fromLane="0" to="-19353551#8" toLane="0"/>
    <delete from="-19353551#9" fromLane="0" to="-19357548" toLane="0"/>
    <delete from="-19353591#0" fromLane="0" to="-19353092#3" toLane="0"/>
    <delete from="-19353591#0" fromLane="0" to="19353092#4" toLane="0"/>
    <delete from="-19353591#1" fromLane="0" to="-19357262#0" toLane="0"/>
    <delete from="-19353591#1" fromLane="0" to="-19353591#0" toLane="0"/>
    <delete from="-19353591#1" fromLane="0" to="19357262#1" toLane="0"/>
    <delete from="-19353686#1" fromLane="1" to="492477204" toLane="0"/>
    <delete from="-19353686#2" fromLane="1" to="19353551#0" toLane="0"/>
    <delete from="-19353686#5" fromLane="1" to="19352450" toLane="0"/>
    <delete from="-19353686#6" fromLane="1" to="19352449#0" toLane="0"/>
    <delete from="-19353747#0" fromLane="0" to="19358628#1" toLane="1"/>
    <delete from="-19353747#1" fromLane="0" to="-19356054" toLane="0"/>
    <delete from="-19353747#1" fromLane="0" to="-19353747#0" toLane="0"/>
    <delete from="-19353747#2" fromLane="0" to="-19358324" toLane="0"/>
    <delete from="-19353747#2" fromLane="0" to="-19353747#1" toLane="0"/>
    <delete from="-19353747#3" fromLane="0" to="-19356437" toLane="0"/>
    <delete from="-19353747#3" fromLane="0" to="-19353747#2" toLane="0"/>
    <delete from="-19353747#4" fromLane="0" to="-19353747#3" toLane="0"/>
    <delete from="-19353747#5" fromLane="0" to="-19353747#4" toLane="0"/>
    <delete from="-19353747#5" fromLane="0" to="19359303" toLane="0"/>
    <delete from="-19353810#0" fromLane="0" to="-19356382#19" toLane="1"/>
    <delete from="-19353810#0" fromLane="0" to="19356382#20" toLane="1"/>
    <delete from="-19353810#1" fromLane="0" to="-19353810#0" toLane="0"/>
    <delete from="-19353810#5" fromLane="0" to="-19353810#4" toLane="0"/>
    <delete from="-19353810#5" fromLane="0" to="-19353591#1" toLane="0"/>
    <delete from="-19353819" fromLane="0" to="19360222#5" toLane="1"/>
    <delete from="-19353946#0" fromLane="0" to="-19359786#0" toLane="1"/>
    <delete from="-19353946#0" fromLane="0" to="-19348645" toLane="0"/>
    <delete from="-19353946#0" fromLane="0" to="19359786#1" toLane="1"/>
    <delete from="-19353946#1" fromLane="0" to="-19360199" toLane="0"/>
    <delete from="-19353946#1" fromLane="0" to="-19353946#0" toLane="0"/>
    <delete from="-19353961#0" fromLane="0" to="19356535#6" toLane="0"/>
    <delete from="-19353961#1" fromLane="0" to="-19354908" toLane="0"/>
    <delete from="-19354007" fromLane="0" to="19351857#9" toLane="1"/>
    <delete from="-19354052" fromLane="0" to="570941862#3" toLane="0"/>
    <delete from="-19354056#0" fromLane="0" to="-19358587#0" toLane="0"/>
    <delete from="-19354057#1" fromLane="0" to="-19359704" toLane="0"/>
    <delete from="-19354057#1" fromLane="0" to="-19354057#0" toLane="0"/>
    <delete from="-19354074" fromLane="0" to="-19351857#6" toLane="1"/>
    <delete from="-19354074" fromLane="0" to="19351857#7" toLane="1"/>
    <delete from="-19354125" fromLane="0" to="-19361235#0" toLane="0"/>
    <delete from="-19354242#1" fromLane="1" to="-19356269" toLane="0"/>
    <delete from="-19354288#0" fromLane="0" to="-516917086#8" toLane="1"/>
    <delete from="-19354288#0" fromLane="0" to="516917086#9" toLane="1"/>
    <delete from="-19354288#1" fromLane="0" to="-19359759#2" toLane="0"/>
    <delete from="-19354288#1" fromLane="0" to="-19354288#0" toLane="0"/>
    <delete from="-19354288#2" fromLane="0" to="-19356409#2" toLane="0"/>
    <delete from="-19354288#2" fromLane="0" to="19356409#3" toLane="0"/>
    <delete from="-19354288#3" fromLane="0" to="-19356023#1" toLane="0"/>
    <delete from="-19354306" fromLane="0" to="-19351696#0" toLane="0"/>
    <delete from="-19354319" fromLane="0" to="19353316" toLane="0"/>
    <delete from="-19354319" fromLane="0" to="261166138#9" toLane="1"/>
    <delete from="-19354328" fromLane="0" to="-19359071#1" toLane="0"/>
    <delete from="-19354328" fromLane="0" to="19359071#2" toLane="0"/>
    <delete from="-19354349#0" fromLane="0" to="-288107045#8" toLane="1"/>
    <delete from="-19354349#0" fromLane="0" to="288107045#9" toLane="1"/>
    <delete from="-19354349#1" fromLane="0" to="-19355310#3" toLane="0"/>
    <delete from="-19354349#1" fromLane="0" to="-19354349#0" toLane="0"/>
    <delete from="-19354349#1" fromLane="0" to="19355310#4" toLane="0"/>
    <delete from="-19354372#15" fromLane="0" to="-617265279#10" toLane="1"/>
    <delete from="-19354372#15" fromLane="0" to="617265279#11" toLane="1"/>
    <delete from="-19354372#2" fromLane="0" to="-19354375" toLane="0"/>
    <delete from="-19354375" fromLane="0" to="-19357319#0" toLane="0"/>
    <delete from="-19354375" fromLane="0" to="19357319#1" toLane="0"/>
    <delete from="-19354437#0" fromLane="0" to="19357791" toLane="0"/>
    <delete from="-19354437#0" fromLane="0" to="19352924#5" toLane="1"/>
    <delete from="-19354437#1" fromLane="0" to="19354435#5" toLane="1"/>
    <delete from="-19354437#1" fromLane="0" to="-19354437#0" toLane="0"/>
    <delete from="-19354558#0" fromLane="1" to="288107045#0" toLane="1"/>
    <delete from="-19354558#1" fromLane="1" to="358897200" toLane="0"/>
    <delete from="-19354558#1" fromLane="1" to="-19354558#0" toLane="1"/>
    <delete from="-19354572#0" fromLane="0" to="19352285#6" toLane="1"/>
    <delete from="-19354572#0" fromLane="0" to="-19352285#5" toLane="1"/>
    <delete from="-19354572#1" fromLane="0" to="-19354572#0" toLane="0"/>
    <delete from="-19354589#0" fromLane="0" to="586093471" toLane="0"/>
    <delete from="-19354661#0" fromLane="0" to="-516917086#4" toLane="1"/>
    <delete from="-19354661#0" fromLane="0" to="516917086#5" toLane="1"/>
    <delete from="-19354661#1" fromLane="0" to="-19352722" toLane="0"/>
    <delete from="-19354661#1" fromLane="0" to="-19354661#0" toLane="0"/>
    <delete from="-19354661#2" fromLane="0" to="19357732" toLane="0"/>
    <delete from="-19354661#2" fromLane="0" to="-19354661#1" toLane="0"/>
    <delete from="-19354661#3" fromLane="0" to="-19359759#0" toLane="0"/>
    <delete from="-19354661#3" fromLane="0" to="-19354661#2" toLane="0"/>
    <delete from="-19354661#3" fromLane="0" to="19359759#1" toLane="0"/>
    <delete from="-19354661#4" fromLane="0" to="-19354661#3" toLane="0"/>
    <delete from="-19354661#5" fromLane="0" to="-19357061" toLane="0"/>
    <delete from="-19354661#5" fromLane="0" to="-19354661#4" toLane="0"/>
    <delete from="-19354661#6" fromLane="0" to="19353885" toLane="0"/>
    <delete from="-19354661#6" fromLane="0" to="-19354661#5" toLane="0"/>
    <delete from="-19354661#7" fromLane="0" to="-19356409#0" toLane="0"/>
    <delete from="-19354661#7" fromLane="0" to="-19354661#6" toLane="0"/>
    <delete from="-19354661#7" fromLane="0" to="19356409#1" toLane="0"/>
    <delete from="-19354661#8" fromLane="0" to="-19356023#0" toLane="0"/>
    <delete from="-19354661#8" fromLane="0" to="-19354661#7" toLane="0"/>
    <delete from="-19354661#8" fromLane="0" to="19356023#1" toLane="0"/>
    <delete from="-19354661#9" fromLane="0" to="-19356258#0" toLane="0"/>
    <delete from="-19354661#9" fromLane="0" to="-19354661#8" toLane="0"/>
    <delete from="-19354661#9" fromLane="0" to="19356258#1" toLane="0"/>
    <delete from="-19354710#0" fromLane="0" to="19352285#8" toLane="1"/>
    <delete from="-19354710#0" fromLane="0" to="-19352285#7" toLane="1"/>
    <delete from="-19354710#1" fromLane="0" to="19361189#1" toLane="0"/>
    <delete from="-19354710#1" fromLane="0" to="-19354710#0" toLane="0"/>
    <delete from="-19354710#1" fromLane="0" to="-19361189#0" toLane="0"/>
    <delete from="-19354807#0" fromLane="0" to="617523919#2" toLane="1"/>
    <delete from="-19354807#0" fromLane="0" to="-617523919#1" toLane="1"/>
    <delete from="-19354807#1" fromLane="0" to="-19354807#0" toLane="0"/>
    <delete from="-19354908" fromLane="0" to="-19352285#10" toLane="1"/>
    <delete from="-19354908" fromLane="0" to="19352285#11" toLane="1"/>
    <delete from="-19354956#0" fromLane="1" to="-19356535#0" toLane="0"/>
    <delete from="-19354956#2" fromLane="1" to="-19347482" toLane="0"/>
    <delete from="-19355038" fromLane="0" to="19360459#3" toLane="0"/>
    <delete from="-19355038" fromLane="0" to="-19360459#2" toLane="0"/>
    <delete from="-19355081#0" fromLane="0" to="-43160265#6" toLane="1"/>
    <delete from="-19355081#0" fromLane="0" to="19359787#0" toLane="1"/>
    <delete from="-19355081#1" fromLane="0" to="-19355081#0" toLane="0"/>
    <delete from="-19355081#1" fromLane="0" to="19360199" toLane="0"/>
    <delete from="-19355081#2" fromLane="0" to="-19355081#1" toLane="0"/>
    <delete from="-19355081#3" fromLane="0" to="-19355081#2" toLane="0"/>
    <delete from="-19355081#3" fromLane="0" to="19361056" toLane="0"/>
    <delete from="-19355169#0" fromLane="0" to="203954132#1" toLane="1"/>
    <delete from="-19355289#0" fromLane="0" to="19356382#10" toLane="1"/>
    <delete from="-19355289#0" fromLane="0" to="-19356382#9" toLane="1"/>
    <delete from="-19355289#1" fromLane="0" to="-19355289#0" toLane="0"/>
    <delete from="-19355310#0" fromLane="0" to="-19356476" toLane="0"/>
    <delete from="-19355310#1" fromLane="0" to="19351996#1" toLane="0"/>
    <delete from="-19355310#1" fromLane="0" to="-19355310#0" toLane="0"/>
    <delete from="-19355310#1" fromLane="0" to="-19351996#0" toLane="0"/>
    <delete from="-19355310#2" fromLane="0" to="19361226#1" toLane="0"/>
    <delete from="-19355310#2" fromLane="0" to="-19355310#1" toLane="0"/>
    <delete from="-19355310#2" fromLane="0" to="-19361226#0" toLane="0"/>
    <delete from="-19355310#3" fromLane="0" to="19356562#1" toLane="0"/>
    <delete from="-19355310#3" fromLane="0" to="-19355310#2" toLane="0"/>
    <delete from="-19355310#3" fromLane="0" to="-19356562#0" toLane="0"/>
    <delete from="-19355310#4" fromLane="0" to="19354349#1" toLane="0"/>
    <delete from="-19355310#4" fromLane="0" to="-19355310#3" toLane="0"/>
    <delete from="-19355310#4" fromLane="0" to="-19354349#0" toLane="0"/>
    <delete from="-19355310#5" fromLane="0" to="329995324#1" toLane="0"/>
    <delete from="-19355310#5" fromLane="0" to="-19355310#4" toLane="0"/>
    <delete from="-19355310#5" fromLane="0" to="-329995324#0" toLane="0"/>
    <delete from="-19355310#6" fromLane="0" to="19359966#1" toLane="0"/>
    <delete from="-19355310#6" fromLane="0" to="-19355310#5" toLane="0"/>
    <delete from="-19355310#6" fromLane="0" to="-19359966#0" toLane="0"/>
    <delete from="-19355310#7" fromLane="0" to="-19355310#6" toLane="0"/>
    <delete from="-19355395#0" fromLane="0" to="19361060#8" toLane="0"/>
    <delete from="-19355395#3" fromLane="0" to="92384042#6" toLane="2"/>
    <delete from="-19355399#0" fromLane="0" to="19358272#4" toLane="1"/>
    <delete from="-19355399#1" fromLane="0" to="-19355399#0" toLane="0"/>
    <delete from="-19355399#1" fromLane="0" to="-19352449#1" toLane="0"/>
    <delete from="-19355437" fromLane="0" to="661061473#1" toLane="1"/>
    <delete from="-19355437" fromLane="0" to="-661061473#0" toLane="1"/>
    <delete from="-19355474" fromLane="0" to="19360120" toLane="0"/>
    <delete from="-19355479#0" fromLane="0" to="19354792#8" toLane="1"/>
    <delete from="-19355479#1" fromLane="0" to="19358272#1" toLane="1"/>
    <delete from="-19355479#1" fromLane="0" to="-19355479#0" toLane="0"/>
    <delete from="-19355479#2" fromLane="0" to="-19355479#1" toLane="0"/>
    <delete from="-19355479#3" fromLane="0" to="-19355479#2" toLane="0"/>
    <delete from="-19355479#3" fromLane="0" to="19356227" toLane="0"/>
    <delete from="-19355728" fromLane="0" to="19356778" toLane="1"/>
    <delete from="-19355771#1" fromLane="0" to="-19356001" toLane="0"/>
    <delete from="-19355771#3" fromLane="0" to="-19356637" toLane="0"/>
    <delete from="-19355865#0" fromLane="0" to="617265279#5" toLane="1"/>
    <delete from="-19355865#0" fromLane="0" to="-617265279#4" toLane="1"/>
    <delete from="-19355875" fromLane="0" to="-617265279#3" toLane="1"/>
    <delete from="-19355875" fromLane="0" to="617265279#4" toLane="1"/>
    <delete from="-19355923" fromLane="0" to="-19356382#3" toLane="1"/>
    <delete from="-19355923" fromLane="0" to="19356382#4" toLane="1"/>
    <delete from="-19356001" fromLane="0" to="-19360339#1" toLane="1"/>
    <delete from="-19356001" fromLane="0" to="19360339#2" toLane="1"/>
    <delete from="-19356023#0" fromLane="0" to="19359787#1" toLane="1"/>
    <delete from="-19356023#0" fromLane="0" to="-19359787#0" toLane="1"/>
    <delete from="-19356023#1" fromLane="0" to="19354661#8" toLane="0"/>
    <delete from="-19356023#1" fromLane="0" to="-19356023#0" toLane="0"/>
    <delete from="-19356023#1" fromLane="0" to="-19354661#7" toLane="0"/>
    <delete from="-19356025#1" fromLane="0" to="-661061476#7" toLane="1"/>
    <delete from="-19356025#1" fromLane="0" to="-19356025#0" toLane="0"/>
    <delete from="-19356025#1" fromLane="0" to="661061476#8" toLane="1"/>
    <delete from="-19356025#2" fromLane="0" to="-19356025#1" toLane="0"/>
    <delete from="-19356048#1" fromLane="0" to="-19359759#1" toLane="0"/>
    <delete from="-19356048#1" fromLane="0" to="-19356048#0" toLane="0"/>
    <delete from="-19356048#1" fromLane="0" to="19359759#2" toLane="0"/>
    <delete from="-19356224#1" fromLane="0" to="661061487#4" toLane="1"/>
    <delete from="-19356224#1" fromLane="0" to="-19356224#0" toLane="0"/>
    <delete from="-19356224#2" fromLane="0" to="19351910#0" toLane="0"/>
    <delete from="-19356224#2" fromLane="0" to="-19356224#1" toLane="0"/>
    <delete from="-19356224#3" fromLane="0" to="19352901#0" toLane="0"/>
    <delete from="-19356224#3" fromLane="0" to="-19356224#2" toLane="0"/>
    <delete from="-19356224#4" fromLane="0" to="-19356224#3" toLane="0"/>
    <delete from="-19356227" fromLane="0" to="19355479#3" toLane="0"/>
    <delete from="-19356233#0" fromLane="1" to="19348645" toLane="0"/>
    <delete from="-19356258#0" fromLane="0" to="19359787#2" toLane="1"/>
    <delete from="-19356258#0" fromLane="0" to="-19359787#1" toLane="1"/>
    <delete from="-19356258#1" fromLane="0" to="19354661#9" toLane="0"/>
    <delete from="-19356258#1" fromLane="0" to="-19356258#0" toLane="0"/>
    <delete from="-19356258#1" fromLane="0" to="-19354661#8" toLane="0"/>
    <delete from="-19356258#2" fromLane="0" to="-19356258#1" toLane="0"/>
    <delete from="-19356258#2" fromLane="0" to="-19354288#3" toLane="0"/>
    <delete from="-19356258#3" fromLane="0" to="-19356258#2" toLane="0"/>
    <delete from="-19356262" fromLane="0" to="-19357385#5" toLane="0"/>
    <delete from="-19356262" fromLane="0" to="19357385#6" toLane="0"/>
    <delete from="-19356269" fromLane="0" to="19356382#14" toLane="1"/>
    <delete from="-19356269" fromLane="0" to="-19356382#13" toLane="1"/>
    <delete from="-19356382#0" fromLane="1" to="19352484#0" toLane="1"/>
    <delete from="-19356382#0" fromLane="1" to="19356099#0" toLane="2"/>
    <delete from="-19356382#0" fromLane="1" to="-617523920#3" toLane="1"/>
    <delete from="-19356382#1" fromLane="1" to="19358563#0" toLane="0"/>
    <delete from="-19356382#10" fromLane="1" to="19355289#0" toLane="0"/>
    <delete from="-19356382#11" fromLane="1" to="-19354057#1" toLane="0"/>
    <delete from="-19356382#12" fromLane="1" to="19358153#0" toLane="0"/>
    <delete from="-19356382#13" fromLane="1" to="19347482" toLane="0"/>
    <delete from="-19356382#14" fromLane="1" to="19356269" toLane="0"/>
    <delete from="-19356382#15" fromLane="1" to="19356535#0" toLane="0"/>
    <delete from="-19356382#19" fromLane="1" to="19359858" toLane="0"/>
    <delete from="-19356382#2" fromLane="1" to="19358927#0" toLane="0"/>
    <delete from="-19356382#20" fromLane="1" to="19353810#0" toLane="0"/>
    <delete from="-19356382#21" fromLane="1" to="19357262#0" toLane="0"/>
    <delete from="-19356382#21" fromLane="1" to="-19356382#20" toLane="1"/>
    <delete from="-19356382#22" fromLane="1" to="-19356382#21" toLane="1"/>
    <delete from="-19356382#22" fromLane="1" to="19353293#0" toLane="0"/>