<?xml version="1.0" encoding="UTF-8"?>

<!-- generated on 2024-03-22 15:46:57 by Eclipse SUMO netedit Version 1.19.0
-->

<additional xmlns:xsi="http://www.w3.org/2001/XMLSchema-instance" xsi:noNamespaceSchemaLocation="http://sumo.dlr.de/xsd/additional_file.xsd">
    <!-- TAZs -->
    <taz id="1" shape="6604.21,5959.71 7124.11,5783.38 6942.43,5636.54 6347.11,5762.23 6604.21,5959.71" color="red">
        <tazSource id="19354939" weight="0.00"/>
        <tazSink id="19354939" weight="1.00"/>
        <tazSource id="71476104" weight="1.00"/>
        <tazSink id="71476104" weight="0.00"/>
    </taz>
    <taz id="2" shape="13541.42,20983.37 13702.52,21050.20 13819.47,20825.85 13592.74,20720.83 13541.42,20983.37" color="red">
        <tazSource id="-92372403" weight="0.00"/>
        <tazSink id="-92372403" weight="1.00"/>
        <tazSource id="92372403" weight="1.00"/>
        <tazSink id="92372403" weight="0.00"/>
    </taz>
    <taz id="3" shape="17369.40,20677.27 17545.38,20707.46 17527.79,20556.49 17356.78,20514.61 17369.40,20677.27" color="red">
        <tazSource id="652025236" weight="1.00"/>
        <tazSink id="652025236" weight="0.00"/>
        <tazSource id="92367190" weight="0.00"/>
        <tazSink id="92367190" weight="1.00"/>
    </taz>
    <taz id="572" shape="16254.40,19148.04 16258.62,19153.26 16263.82,19158.02 16263.00,19168.15 16290.01,19168.12 16291.30,19166.42 16300.46,19165.85 16300.63,19162.96 16305.91,19160.60 16313.07,19160.30 16320.05,19159.34 16326.09,19157.86 16339.12,19152.30 16345.71,19149.13 16351.46,19145.65 16362.87,19139.02 16367.42,19134.23 16371.53,19128.68 16374.80,19123.16 16378.81,19117.05 16383.60,19111.82 16394.53,19102.76 16400.45,19099.61 16407.08,19097.99 16444.41,19097.25 16444.97,19099.57 16471.96,19095.65 16490.17,19093.74 16496.11,19091.36 16507.97,19089.06 16508.33,19086.49 16520.63,19081.95 16532.30,19081.98 16535.59,19077.12 16541.51,19076.97 16555.07,19079.06 16568.92,19082.93 16580.89,19087.84 16593.20,19090.19 16598.55,19093.72 16600.87,19099.66 16603.08,19114.27 16603.69,19121.92 16604.72,19142.34 16608.13,19148.36 16611.45,19154.61 16612.98,19162.23 16614.49,19168.97 16615.42,19176.06 16616.12,19183.82 16617.64,19191.00 16618.80,19197.19 16620.14,19210.38 16620.42,19217.82 16621.19,19225.24 16623.13,19232.52 16632.01,19243.63 16634.40,19249.34 16637.41,19256.15 16643.13,19267.56 16650.31,19281.26 16653.31,19287.63 16655.90,19294.23 16657.47,19300.08 16658.72,19306.60 16659.91,19313.90 16664.54,19335.01 16668.34,19349.80 16670.20,19357.53 16672.96,19364.34 16674.29,19370.64 16676.60,19376.14 16680.81,19381.03 16685.04,19386.70 16682.10,19388.77 16722.44,19421.07 16724.09,19423.58 16727.88,19428.26 16732.51,19433.47 16737.13,19437.91 16741.18,19442.92 16744.81,19448.04 16747.65,19454.75 16749.48,19461.14 16751.72,19466.98 16754.64,19473.57 16757.40,19480.38 16761.30,19492.84 16762.46,19499.14 16764.50,19506.87 16765.90,19512.72 16767.47,19518.79 16768.97,19524.97 16771.47,19531.46 16775.39,19538.03 16779.96,19544.24 16784.19,19549.69 16802.79,19569.54 16808.03,19575.52 16813.79,19579.15 16818.85,19584.46 16823.32,19590.01 16828.79,19594.98 16840.27,19603.80 16845.16,19609.34 16848.00,19616.04 16848.18,19622.82 16848.18,19629.37 16847.88,19643.71 16847.82,19650.94 16848.35,19671.59 16850.46,19679.31 16855.44,19684.96 16860.93,19687.71 16867.34,19687.43 16875.75,19686.99 16882.40,19686.15 16887.89,19682.46 16891.68,19677.36 16893.68,19670.98 16894.02,19664.86 16893.53,19642.65 16892.49,19628.12 16891.49,19621.37 16889.71,19614.08 16888.52,19606.56 16887.17,19599.59 16885.49,19592.41 16884.74,19586.10 16884.06,19578.90 16889.80,19575.19 16948.46,19529.02 16961.39,19519.46 16963.97,19522.73 16966.04,19528.46 16968.85,19534.05 16972.94,19540.83 16975.59,19546.65 16977.84,19553.26 16980.27,19560.09 16983.22,19567.68 16985.65,19574.73 16987.75,19581.89 16989.32,19587.74 16991.31,19593.80 16994.05,19600.06 16996.72,19606.44 16998.88,19612.72 16999.91,19620.36 16999.76,19627.47 16997.77,19634.52 16993.66,19639.85 16988.85,19644.20 16975.88,19651.75 16968.95,19654.60 16956.77,19660.91 16944.99,19666.43 16938.61,19670.82 16932.97,19675.19 16933.24,19676.07 16935.03,19680.69 16941.51,19680.19 16947.46,19678.04 16954.46,19674.63 16960.31,19672.15 16962.45,19671.10 16965.91,19669.23 16971.22,19665.20 16976.79,19661.39 16987.54,19654.56 16993.68,19650.52 16998.92,19646.71 17004.39,19642.13 17008.81,19635.68 17010.61,19628.08 17008.54,19615.58 17007.04,19609.06 17005.22,19603.22 17003.98,19596.92 17000.14,19583.80 16997.00,19575.21 16994.14,19567.84 16991.79,19560.68 16986.87,19544.58 16983.68,19537.00 16980.72,19528.97 16978.36,19521.58 16976.21,19515.53 16974.89,19509.67 16974.54,19502.68 16972.84,19494.95 16970.57,19487.45 16965.97,19480.68 16960.01,19478.95 16952.74,19481.36 16946.49,19484.63 16939.99,19488.24 16934.33,19491.72 16928.49,19494.87 16921.23,19497.61 16915.35,19499.09 16909.63,19497.02 16904.83,19492.03 16900.25,19485.93 16896.35,19480.14 16893.60,19473.66 16895.78,19467.49 16901.31,19462.24 16906.46,19458.10 16912.26,19453.73 16918.75,19449.79 16925.13,19445.29 16922.69,19444.35 16916.80,19445.50 16910.60,19447.44 16902.96,19448.75 16896.15,19449.37 16890.03,19448.19 16884.31,19446.12 16877.34,19444.08 16872.03,19438.88 16867.71,19432.99 16863.07,19427.44 16855.39,19417.31 16851.75,19411.85 16847.74,19405.06 16844.36,19400.15 16840.88,19394.57 16837.56,19388.66 16835.49,19382.49 16835.15,19375.83 16834.13,19368.75 16827.66,19360.03 16817.39,19349.74 16815.59,19347.78 16814.02,19342.04 16813.36,19335.62 16812.17,19328.54 16811.68,19322.22 16811.50,19315.44 16811.02,19309.46 16809.86,19303.26 16808.12,19297.42 16806.88,19291.23 16804.72,19285.29 16804.14,19278.75 16804.90,19272.62 16934.98,19260.82 16933.96,19253.85 16933.36,19249.87 16931.52,19249.69 16925.67,19249.06 16904.05,19247.95 16891.05,19248.18 16884.83,19246.23 16878.01,19243.62 16871.13,19241.91 16857.76,19237.48 16844.58,19233.93 16838.10,19231.54 16831.19,19228.50 16823.76,19225.02 16817.07,19220.97 16805.38,19213.61 16799.95,19209.75 16794.00,19205.68 16788.38,19200.93 16777.28,19190.55 16772.40,19185.57 16768.74,19179.44 16766.53,19171.61 16765.01,19164.32 16764.81,19162.77 16764.09,19157.45 16763.64,19149.80 16763.20,19129.59 16764.21,19123.56 16765.79,19116.74 16768.20,19110.01 16773.90,19098.31 16777.16,19092.23 16781.60,19086.45 16787.01,19082.98 16792.66,19078.83 16791.82,19075.41 16786.40,19072.21 16772.96,19065.01 16765.12,19061.76 16751.33,19057.01 16744.59,19054.51 16737.93,19051.35 16732.08,19047.84 16726.89,19043.53 16724.41,19041.26 16721.51,19038.55 16715.63,19033.48 16710.16,19028.29 16705.04,19023.87 16699.71,19020.89 16692.54,19017.75 16686.39,19015.24 16680.01,19013.40 16673.24,19012.69 16665.95,19011.43 16658.82,19009.62 16653.96,19008.74 16639.87,19005.22 16625.70,19002.36 16619.32,19000.52 16613.52,18998.45 16607.46,18996.49 16601.06,18993.88 16595.22,18990.59 16588.78,18986.31 16581.38,18983.95 16574.68,18982.90 16561.86,18980.12 16556.50,18979.37 16548.14,18978.58 16540.80,18978.21 16534.76,18977.04 16527.20,18974.57 16520.57,18972.96 16513.70,18971.80 16507.76,18970.96 16501.89,18969.55 16495.84,18967.49 16489.38,18965.99 16482.26,18964.72 16469.48,18963.72 16463.61,18962.32 16457.56,18960.58 16450.87,18956.65 16445.77,18952.89 16438.77,18952.74 16432.35,18952.90 16426.00,18952.40 16419.23,18951.57 16412.63,18951.08 16400.46,18951.17 16392.93,18950.25 16386.57,18949.30 16379.55,18948.60 16373.37,18948.09 16353.97,18945.92 16338.67,18943.99 16331.82,18943.50 16324.22,18943.25 16317.29,18942.76 16310.52,18941.93 16295.77,18939.20 16288.65,18937.72 16281.36,18936.35 16265.47,18934.21 16250.75,18932.70 16228.79,18931.05 16221.34,18930.24 16199.85,18927.46 16192.41,18926.76 16184.98,18926.29 16177.96,18925.69 16170.76,18924.66 16129.37,18919.73 16117.59,18918.70 16102.39,18917.65 16095.20,18916.94 16080.47,18914.88 16065.59,18913.37 16050.79,18911.42 16036.49,18909.90 16021.55,18909.07 16007.18,18908.00 15999.41,18907.20 15977.74,18904.53 15962.61,18902.93 15940.05,18900.95 15925.51,18899.55 15889.78,18897.59 15871.81,18895.94 15865.72,18895.77 15854.36,18894.84 15842.40,18893.37 15835.03,18892.01 15828.43,18891.73 15821.08,18891.25 15812.72,18890.14 15806.53,18889.52 15798.85,18889.05 15791.76,18888.90 15783.60,18889.11 15775.34,18889.11 15768.79,18887.16 15761.15,18885.03 15754.95,18883.97 15745.84,18882.87 15737.82,18882.41 15729.49,18882.52 15721.89,18882.05 15715.23,18879.33 15708.77,18877.61 15700.73,18876.26 15684.66,18874.01 15676.79,18872.77 15660.70,18869.52 15653.50,18868.26 15637.96,18867.00 15631.27,18866.28 15624.66,18865.34 15617.57,18864.97 15610.41,18865.49 15602.93,18863.02 15596.07,18859.19 15588.18,18857.18 15579.80,18855.28 15571.90,18852.82 15558.16,18847.18 15550.42,18844.27 15543.13,18842.90 15535.93,18841.75 15529.32,18840.93 15522.00,18838.45 15515.82,18834.72 15510.08,18831.76 15502.09,18829.08 15493.77,18826.51 15485.43,18823.29 15479.37,18821.11 15465.50,18816.80 15445.90,18810.09 15440.26,18808.01 15428.37,18802.66 15410.33,18795.01 15401.84,18792.23 15395.71,18790.84 15379.26,18786.60 15370.71,18784.71 15362.17,18783.15 15354.70,18781.35 15346.56,18779.22 15340.35,18777.72 15331.70,18775.39 15324.22,18773.03 15316.89,18770.22 15302.94,18765.91 15290.24,18761.69 15282.70,18760.10 15275.34,18759.29 15269.00,18759.01 15262.69,18757.07 15260.39,18761.46 15251.90,18768.24 15255.54,18770.47 15296.77,18791.51 15308.51,18797.32 15332.24,18808.93 15348.97,18817.49 15361.21,18823.51 15390.09,18834.42 15418.35,18844.02 15443.24,18848.93 15451.45,18850.61 15481.05,18856.95 15499.55,18859.92 15553.81,18868.96 15558.34,18869.95 15606.83,18878.47 15624.08,18881.47 15658.68,18888.02 15668.24,18889.99 15711.76,18899.97 15734.15,18904.95 15756.54,18909.92 15801.36,18921.43 15857.74,18938.53 15900.69,18951.97 15909.50,18921.97 15920.29,18923.46 15935.70,18925.95 15957.46,18932.50 15978.60,18937.51 16001.70,18944.47 16041.36,18953.00 16054.04,18953.45 16069.23,18950.94 16086.34,18948.50 16099.68,18948.49 16111.83,18950.95 16124.04,18955.53 16135.52,18960.90 16134.45,18964.93 16116.83,19018.49 16157.18,19031.45 16165.56,19033.01 16177.03,19034.93 16212.68,19037.01 16263.62,19040.47 16261.65,19086.52 16257.50,19122.96 16254.40,19148.04" color="red">
        <tazSource id="-19352664" weight="1.00"/>
        <tazSink id="-19352664" weight="1.00"/>
        <tazSource id="-19353346" weight="1.00"/>
        <tazSink id="-19353346" weight="1.00"/>
        <tazSource id="-19353378" weight="1.00"/>
        <tazSink id="-19353378" weight="1.00"/>
        <tazSource id="-19354009" weight="1.00"/>
        <tazSink id="-19354009" weight="1.00"/>
        <tazSource id="-19355435#0" weight="1.00"/>
        <tazSink id="-19355435#0" weight="1.00"/>
        <tazSource id="-19355435#1" weight="1.00"/>
        <tazSink id="-19355435#1" weight="1.00"/>
        <tazSource id="-19357169" weight="1.00"/>
        <tazSink id="-19357169" weight="1.00"/>
        <tazSource id="-19359750#0" weight="1.00"/>
        <tazSink id="-19359750#0" weight="1.00"/>
        <tazSource id="-19359750#1" weight="1.00"/>
        <tazSink id="-19359750#1" weight="1.00"/>
        <tazSource id="-19359750#2" weight="1.00"/>
        <tazSink id="-19359750#2" weight="1.00"/>
        <tazSource id="-19359750#3" weight="1.00"/>
        <tazSink id="-19359750#3" weight="1.00"/>
        <tazSource id="-19361338" weight="1.00"/>
        <tazSink id="-19361338" weight="1.00"/>
        <tazSource id="-309822235#20" weight="1.00"/>
        <tazSink id="-309822235#20" weight="1.00"/>
        <tazSource id="-309822235#21" weight="1.00"/>
        <tazSink id="-309822235#21" weight="1.00"/>
        <tazSource id="-309822235#22" weight="1.00"/>
        <tazSink id="-309822235#22" weight="1.00"/>
        <tazSource id="-309822235#23" weight="1.00"/>
        <tazSink id="-309822235#23" weight="1.00"/>
        <tazSource id="-309822235#24" weight="1.00"/>
        <tazSink id="-309822235#24" weight="1.00"/>
        <tazSource id="-309822235#25" weight="1.00"/>
        <tazSink id="-309822235#25" weight="1.00"/>
        <tazSource id="-309822235#26" weight="1.00"/>
        <tazSink id="-309822235#26" weight="1.00"/>
        <tazSource id="-556080434" weight="1.00"/>
        <tazSink id="-556080434" weight="1.00"/>
        <tazSource id="19352664" weight="1.00"/>
        <tazSink id="19352664" weight="1.00"/>
        <tazSource id="19353346" weight="1.00"/>
        <tazSink id="19353346" weight="1.00"/>
        <tazSource id="19353378" weight="1.00"/>
        <tazSink id="19353378" weight="1.00"/>
        <tazSource id="19354009" weight="1.00"/>
        <tazSink id="19354009" weight="1.00"/>
        <tazSource id="19355190" weight="1.00"/>
        <tazSink id="19355190" weight="1.00"/>
        <tazSource id="19355435#0" weight="1.00"/>
        <tazSink id="19355435#0" weight="1.00"/>
        <tazSource id="19355435#1" weight="1.00"/>
        <tazSink id="19355435#1" weight="1.00"/>
        <tazSource id="19357169" weight="1.00"/>
        <tazSink id="19357169" weight="1.00"/>
        <tazSource id="19359750#0" weight="1.00"/>
        <tazSink id="19359750#0" weight="1.00"/>
        <tazSource id="19359750#1" weight="1.00"/>
        <tazSink id="19359750#1" weight="1.00"/>
        <tazSource id="19359750#2" weight="1.00"/>
        <tazSink id="19359750#2" weight="1.00"/>
        <tazSource id="19359750#3" weight="1.00"/>
        <tazSink id="19359750#3" weight="1.00"/>
        <tazSource id="19361338" weight="1.00"/>
        <tazSink id="19361338" weight="1.00"/>
        <tazSource id="309822235#10" weight="1.00"/>
        <tazSink id="309822235#10" weight="1.00"/>
        <tazSource id="309822235#11" weight="1.00"/>
        <tazSink id="309822235#11" weight="1.00"/>
        <tazSource id="309822235#12" weight="1.00"/>
        <tazSink id="309822235#12" weight="1.00"/>
        <tazSource id="309822235#13" weight="1.00"/>
        <tazSink id="309822235#13" weight="1.00"/>
        <tazSource id="309822235#14" weight="1.00"/>
        <tazSink id="309822235#14" weight="1.00"/>
        <tazSource id="309822235#18" weight="1.00"/>
        <tazSink id="309822235#18" weight="1.00"/>
        <tazSource id="309822235#19" weight="1.00"/>
        <tazSink id="309822235#19" weight="1.00"/>
        <tazSource id="309822235#20" weight="1.00"/>
        <tazSink id="309822235#20" weight="1.00"/>
        <tazSource id="309822235#21" weight="1.00"/>
        <tazSink id="309822235#21" weight="1.00"/>
        <tazSource id="309822235#22" weight="1.00"/>
        <tazSink id="309822235#22" weight="1.00"/>
        <tazSource id="309822235#23" weight="1.00"/>
        <tazSink id="309822235#23" weight="1.00"/>
        <tazSource id="309822235#24" weight="1.00"/>
        <tazSink id="309822235#24" weight="1.00"/>
        <tazSource id="309822235#25" weight="1.00"/>
        <tazSink id="309822235#25" weight="1.00"/>
        <tazSource id="309822235#26" weight="1.00"/>
        <tazSink id="309822235#26" weight="1.00"/>
        <tazSource id="309822235#8" weight="1.00"/>
        <tazSink id="309822235#8" weight="1.00"/>
        <tazSource id="309822235#9" weight="1.00"/>
        <tazSink id="309822235#9" weight="1.00"/>
        <tazSource id="556080434" weight="1.00"/>
        <tazSink id="556080434" weight="1.00"/>
    </taz>