<routes>
  <vType id="hbnwCar" color="0,0,1" vClass="passenger" departSpeed="random"
    impatience="0.6" lcKeepRight="0.5" lcLaneDiscipline="0.8"
    laneChangeModel="SL2015" lcSublane="5000.0" minGapLat="0.5" latAlignment="center"
    lcLookaheadLeft="2.5" lcStrategic="0.1" lcMaxSpeedLatStanding="1" lcSigma="0.1"/>

  <vType id="hbwCar" color="1,0,0" vClass="passenger" departSpeed="random"
    impatience="0.6" lcKeepRight="0.5" lcLaneDiscipline="0.8"
    laneChangeModel="SL2015" lcSublane="5000.0" minGapLat="0.5" latAlignment="center"
    lcLookaheadLeft="2.5" lcStrategic="0.1" lcMaxSpeedLatStanding="1" lcSigma="0.1"
    />

  <vType id="nhbCar" color="1,1,0" vClass="passenger" departSpeed="random"
    impatience="0.5" lcKeepRight="0.5" lcLaneDiscipline="0.8"
    laneChangeModel="SL2015" lcSublane="5000.0" minGapLat="0.5" latAlignment="center"
    lcLookaheadLeft="2.5" lcStrategic="0.1" lcMaxSpeedLatStanding="1" lcSigma="0.1"/>

  <vType id="truck" color="0,1,0" vClass="truck" departSpeed="random"
    impatience="0.5" lcKeepRight="0.8" lcLaneDiscipline="0.8"
    laneChangeModel="SL2015" lcSublane="5000.0" minGapLat="0.5" latAlignment="center"
    lcLookaheadLeft="2.5" lcStrategic="0.1" lcMaxSpeedLatStanding="1" lcSigma="0.1"/>
<!--
  <vType id="base" color=".1,1,.3" vClass="custom1" guiShape="passenger" departSpeed="random"
    impatience="0.6" lcKeepRight="0.5" lcLaneDiscipline="0.3"
    laneChangeModel="SL2015" lcSublane="5000.0" minGapLat="0.5" latAlignment="center"
    lcLookaheadLeft="2.5" lcStrategic="0.1" lcMaxSpeedLatStanding="1" lcSigma="0.1"
    />
  -->
</routes>
