<configuration>
  <input>
    <net-file value="../../network/aquidneck_island.net.xml"/>
    <route-files value="../../demand/route_files/aitm_baseline/hbnwauto25_run0.rou.xml, ../../demand/route_files/aitm_baseline/hbwauto25_run0.rou.xml, ../../demand/route_files/aitm_baseline/truck25_run0.rou.xml, ../../demand/route_files/aitm_baseline/nhbauto25_run0.rou.xml"/>
    <additional-files value="../../network/additionals/signal_detectors.add.xml, ../../network/additionals/polygons/aquidneck_island_polys.pol.xml, ../../network/additionals/navsta_gate_closures.add.xml, measurements/simulation_measurements.add.xml, ../../network/additionals/flow_calibrators/bridge_calibrators.add.xml, ../../detectors/ridot_continuous_detectors.add.xml"/>
    <weight-files value="../../network/additionals/edge_weights/aitm_baseline/navsta_edge_weights.add.xml, ../../network/additionals/edge_weights/aitm_baseline/edge_weights.add.xml"/>
  </input>
  <output>
    <tripinfo-output value="output/ai25_run0/ai_simulation_tripinfo.xml"/>
    <summary-output value="output/ai25_run0/ai_simulation_summary.xml"/>
    <vehroute-output value="output/ai25_run0/ai_simulation_vehroutes.xml"/>
    <vehroute-output.incomplete value="true"/>
    <save-state.times value="18000, 36000, 54000"/>
    <save-state.prefix value="output/ai25_run0/ai25_run0_state"/>
  </output>
  <time>
    <begin value="0"/>
    <end value="90000"/>
  </time>
  <processing>
    <threads value="1"/>
    <max-depart-delay value="1000"/>
    <lateral-resolution value="1.2"/>
    <scale value="1.0"/>
  </processing>
  <routing>
    <device.rerouting.probability value="0.7"/>
    <device.rerouting.period value="300"/>
    <device.rerouting.threads value="0"/>
  </routing>
  <report>
    <error-log value="logs/ai25_run0_errors.txt"/>
  </report>
  <random>
    <seed value="1886"/>
  </random>
</configuration>
