<?xml version="1.0" encoding="UTF-8"?>

<!-- generated on 01/10/20 21:46:08 by Eclipse SUMO netedit Version 1.4.0
<configuration xmlns:xsi="http://www.w3.org/2001/XMLSchema-instance" xsi:noNamespaceSchemaLocation="http://sumo.dlr.de/xsd/netconvertConfiguration.xsd">

    <input>
        <sumo-net-file value="D:\SUMO\aquidneck-island\aquidneck_island.net.xml"/>
    </input>

    <output>
        <output-file value="D:\SUMO\aquidneck-island\aquidneck_island.net.xml"/>
    </output>

    <processing>
        <geometry.min-radius.fix.railways value="false"/>
        <geometry.max-grade.fix value="false"/>
        <offset.disable-normalization value="true"/>
        <lefthand value="false"/>
    </processing>

    <junctions>
        <no-internal-links value="false"/>
        <no-turnarounds value="true"/>
        <junctions.corner-detail value="5"/>
        <junctions.limit-turn-speed value="5.5"/>
        <rectangular-lane-cut value="false"/>
    </junctions>

    <pedestrian>
        <walkingareas value="false"/>
    </pedestrian>

    <netedit>
        <additional-files value="D:\SUMO\aquidneck-island\simulation\aquidneck_island_traffic_model\additionals\netedit%20detector%20add.add.xml"/>
    </netedit>

    <report>
        <aggregate-warnings value="5"/>
    </report>

</configuration>
-->

<additional xmlns:xsi="http://www.w3.org/2001/XMLSchema-instance" xsi:noNamespaceSchemaLocation="http://sumo.dlr.de/xsd/additional_file.xsd">
    <e3Detector id="e3Detector_0" pos="8315.32,5374.50" freq="900.00" file="e3Detector_0.xml">
        <detEntry lane="65356877#1_1" pos="134.85"/>
        <detExit lane="-71474894_1" pos="4.11"/>
    </e3Detector>
</additional>
