<?xml version="1.0" encoding="UTF-8"?>
<edges version="1.3" xmlns:xsi="http://www.w3.org/2001/XMLSchema-instance" xsi:noNamespaceSchemaLocation="http://sumo.dlr.de/xsd/edgediff_file.xsd">
    <!-- Deleted Elements -->
    <delete id="-19352256#0"/>
    <delete id="-19352256#1"/>
    <delete id="-19353747#4"/>
    <delete id="-19354375"/>
    <delete id="-19355479#0"/>
    <delete id="-19356382#21"/>
    <delete id="-19356703#1"/>
    <delete id="-19357548"/>
    <delete id="-19358272#0"/>
    <delete id="-19358587#0"/>
    <delete id="-19360222#5"/>
    <delete id="-346959934#2"/>
    <delete id="-346959936#3"/>
    <delete id="-440717081#0"/>
    <delete id="-492477208#0"/>
    <delete id="-492477208#1"/>
    <delete id="-492477208#2"/>
    <delete id="-610966930#10"/>
    <delete id="-661055467#6"/>
    <delete id="19347884#1"/>
    <delete id="19350832"/>
    <delete id="19352621#0"/>
    <delete id="19353747#4"/>
    <delete id="19354792#8"/>
    <delete id="19355437"/>
    <delete id="19355479#0"/>
    <delete id="19356382#21"/>
    <delete id="19356703#1"/>
    <delete id="19357791"/>
    <delete id="19358272#0"/>
    <delete id="19360222#5"/>
    <delete id="346959934#2"/>
    <delete id="346959936#3"/>
    <delete id="440717081#0"/>
    <delete id="440717119#0"/>
    <delete id="492477208#2"/>
    <delete id="610966930#10"/>
    <delete id="616852537#0"/>
    <delete id="661055467#6"/>
    <delete id="661061484#1"/>
    <delete id="661061484#3"/>
    <delete id="667242646#2"/>
    <delete id="71469480#0"/>
    <delete id="71469987#5"/>
    <delete id="71472729#2"/>
    <!-- Created Elements -->
    <edge id="-19351906.115" from="gneJ18" numLanes="3" priority="10" speed="11.18" to="201102463" type="highway.tertiary">
        <lane index="0" allow="pedestrian" width="2.00"/>
        <lane index="1" disallow="pedestrian tram rail_urban rail rail_electric rail_fast ship"/>
        <lane index="2" disallow="pedestrian tram rail_urban rail rail_electric rail_fast ship"/>
    </edge>
    <edge id="-19356382#0.103" from="gneJ3" numLanes="3" priority="11" shape="9625.86,6118.02 9627.96,6124.96 9629.49,6135.48 9629.67,6142.03" speed="11.18" to="457779811" type="highway.secondary">
        <lane index="0" allow="pedestrian" width="2.00"/>
        <lane index="1" disallow="pedestrian tram rail_urban rail rail_electric rail_fast ship"/>
        <lane index="2" disallow="pedestrian tram rail_urban rail rail_electric rail_fast ship"/>
    </edge>
    <edge id="-19359517#2" from="201239650" numLanes="2" priority="4" shape="9244.93,4475.60 9228.60,4512.23 9144.61,4578.15" speed="11.18" spreadType="center" to="201125383" type="highway.residential">
        <lane index="0" allow="pedestrian" width="2.00"/>
        <lane index="1" disallow="pedestrian tram rail_urban rail rail_electric rail_fast ship"/>
    </edge>
    <edge id="-19359517#3" from="201236610" numLanes="2" priority="-1" speed="13.89" to="201239650">
        <lane index="0" allow="pedestrian" width="2.00"/>
        <lane index="1" disallow="pedestrian"/>
    </edge>
    <edge id="-19359517#4" from="201068181" numLanes="2" priority="4" speed="13.89" to="201236610">
        <lane index="0" allow="pedestrian" width="2.00"/>
        <lane index="1" disallow="pedestrian"/>
    </edge>
    <edge id="-19359517#5" from="201115499" numLanes="2" priority="2" speed="13.89" to="201068181">
        <lane index="0" allow="pedestrian" width="2.00"/>
        <lane index="1" disallow="pedestrian"/>
    </edge>
    <edge id="-440717074#0.74" from="cluster_gneJ43_gneJ44" numLanes="2" priority="10" shape="8978.63,3588.82 8978.85,3608.49" speed="11.18" to="gneJ30" type="highway.tertiary">
        <lane index="0" allow="pedestrian" width="2.00"/>
        <lane index="1" disallow="pedestrian tram rail_urban rail rail_electric rail_fast ship"/>
    </edge>
    <edge id="-440717074#0.92" from="gneJ30" numLanes="3" priority="10" speed="11.18" to="201143727" type="highway.tertiary">
        <lane index="0" allow="pedestrian" width="2.00"/>
        <lane index="1" disallow="pedestrian tram rail_urban rail rail_electric rail_fast ship"/>
        <lane index="2" disallow="pedestrian tram rail_urban rail rail_electric rail_fast ship"/>
    </edge>
    <edge id="-586093471" from="201136372" numLanes="2" priority="-1" speed="13.89" to="201136365">
        <lane index="0" allow="pedestrian" width="2.00"/>
        <lane index="1" disallow="pedestrian"/>
    </edge>
    <edge id="-610966930#4.59" allow="pedestrian" from="gneJ9" numLanes="1" priority="10" speed="11.18" to="201120990" type="highway.tertiary" width="2.00"/>
    <edge id="-65356877#0.260" disallow="pedestrian tram rail_urban rail rail_electric rail_fast ship" from="gneJ10" numLanes="2" priority="11" speed="11.18" to="201128244" type="highway.secondary"/>
    <edge id="-661061473#1.36" from="gneJ0" numLanes="2" priority="11" shape="8760.60,4621.95 8761.92,4623.43 8789.62,4653.44" speed="11.18" to="gneJ1" type="highway.secondary">
        <lane index="0" allow="pedestrian" width="2.00"/>
        <lane index="1" disallow="pedestrian tram rail_urban rail rail_electric rail_fast ship"/>
    </edge>
    <edge id="-661061473#1.78" from="gneJ1" numLanes="2" priority="11" shape="8789.62,4653.44 8790.14,4654.01 8806.59,4672.46" speed="11.18" to="201176864" type="highway.secondary">
        <lane index="0" allow="pedestrian" width="2.00"/>
        <lane index="1" disallow="pedestrian tram rail_urban rail rail_electric rail_fast ship"/>
    </edge>
    <edge id="-71472826.114" from="gneJ12" numLanes="4" priority="12" shape="8265.82,4592.28 8265.47,4599.22 8266.56,4631.01 8266.80,4647.40" speed="11.18" to="201150041" type="highway.primary">
        <lane index="0" allow="pedestrian" width="2.00"/>
        <lane index="1" disallow="pedestrian tram rail_urban rail rail_electric rail_fast ship"/>
        <lane index="2" disallow="pedestrian tram rail_urban rail rail_electric rail_fast ship"/>
        <lane index="3" disallow="pedestrian tram rail_urban rail rail_electric rail_fast ship"/>
    </edge>
    <edge id="19347930.24" from="gneJ42" numLanes="3" priority="3" shape="8614.20,4415.16 8604.47,4422.97 8598.44,4427.41 8592.93,4430.60" speed="11.18" spreadType="center" to="6247337315" type="highway.residential">
        <lane index="0" allow="pedestrian" width="2.00"/>
        <lane index="1" disallow="pedestrian tram rail_urban rail rail_electric rail_fast ship"/>
        <lane index="2" allow="pedestrian" width="2.00"/>
    </edge>
    <edge id="19353732#0.207" from="gneJ23" numLanes="3" priority="12" shape="8438.07,3990.62 8434.42,4064.49 8434.33,4069.38" speed="11.18" spreadType="center" to="201100675" type="highway.primary">
        <lane index="0" allow="pedestrian" width="2.00"/>
        <lane index="1" disallow="pedestrian tram rail_urban rail rail_electric rail_fast ship"/>
        <lane index="2" disallow="pedestrian tram rail_urban rail rail_electric rail_fast ship"/>
    </edge>
    <edge id="19356382#0.24" from="gneJ3" numLanes="2" priority="11" shape="9625.86,6118.02 9616.30,6094.94 9604.34,6075.48 9587.71,6049.93 9573.51,6028.90" speed="11.18" to="201191172" type="highway.secondary">
        <lane index="0" allow="pedestrian" width="2.00"/>
        <lane index="1" disallow="pedestrian tram rail_urban rail rail_electric rail_fast ship"/>
    </edge>
    <edge id="440717074#0.55" from="cluster_gneJ43_gneJ44" numLanes="2" priority="10" shape="8978.62,3588.19 8978.62,3587.88 8977.92,3529.07 8977.74,3514.02" speed="11.18" to="201159678" type="highway.tertiary">
        <lane index="0" allow="pedestrian" width="2.00"/>
        <lane index="1" disallow="pedestrian tram rail_urban rail rail_electric rail_fast ship"/>
    </edge>
    <edge id="570938686#2.38" from="gneJ34" numLanes="3" priority="12" shape="9188.52,3653.12 9127.29,3666.45" speed="11.18" spreadType="center" to="201119485" type="highway.primary">
        <lane index="0" allow="pedestrian" width="2.00"/>
        <lane index="1" disallow="pedestrian tram rail_urban rail rail_electric rail_fast ship"/>
        <lane index="2" disallow="pedestrian tram rail_urban rail rail_electric rail_fast ship"/>
    </edge>
    <edge id="570938686#3.60" from="gneJ31" numLanes="4" priority="12" shape="9068.17,3679.02 8981.48,3697.45" speed="11.18" spreadType="center" to="cluster_201119381_201119483" type="highway.primary">
        <lane index="0" allow="pedestrian" width="2.00"/>
        <lane index="1" disallow="pedestrian tram rail_urban rail rail_electric rail_fast ship"/>
        <lane index="2" disallow="pedestrian tram rail_urban rail rail_electric rail_fast ship"/>
        <lane index="3" disallow="pedestrian tram rail_urban rail rail_electric rail_fast ship"/>
    </edge>
    <edge id="570938686#5.75" from="gneJ27" numLanes="3" priority="12" shape="8729.41,3744.03 8617.59,3768.35" speed="11.18" spreadType="center" to="5785663193" type="highway.primary">
        <lane index="0" allow="pedestrian" width="2.00"/>
        <lane index="1" disallow="pedestrian tram rail_urban rail rail_electric rail_fast ship"/>
        <lane index="2" disallow="pedestrian tram rail_urban rail rail_electric rail_fast ship"/>
    </edge>
    <edge id="570938686#7.79" from="gneJ25" numLanes="4" priority="12" shape="8527.97,3786.71 8519.92,3787.37 8505.41,3788.76 8500.54,3789.40" speed="11.18" spreadType="center" to="2667703795" type="highway.primary">
        <lane index="0" allow="pedestrian" width="2.00"/>
        <lane index="1" disallow="pedestrian tram rail_urban rail rail_electric rail_fast ship"/>
        <lane index="2" disallow="pedestrian tram rail_urban rail rail_electric rail_fast ship"/>
        <lane index="3" disallow="pedestrian tram rail_urban rail rail_electric rail_fast ship"/>
    </edge>
    <edge id="570942397.42" disallow="pedestrian tram rail_urban rail rail_electric rail_fast ship" from="gneJ11" numLanes="2" priority="12" shape="8265.91,4686.88 8266.55,4656.50 8266.50,4647.60" speed="11.18" to="201150041" type="highway.primary"/>
    <edge id="610966930#4.45" from="gneJ9" numLanes="2" priority="10" speed="11.18" to="201062403" type="highway.tertiary">
        <lane index="0" allow="pedestrian" width="2.00"/>
        <lane index="1" disallow="pedestrian tram rail_urban rail rail_electric rail_fast ship"/>
    </edge>
    <edge id="661061473#1.25" from="gneJ1" numLanes="2" priority="11" shape="8789.62,4653.44 8761.92,4623.43 8760.60,4621.95" speed="11.18" to="gneJ0" type="highway.secondary">
        <lane index="0" allow="pedestrian" width="2.00"/>
        <lane index="1" disallow="pedestrian tram rail_urban rail rail_electric rail_fast ship"/>
    </edge>
    <edge id="661061473#1.68" from="gneJ0" numLanes="2" priority="11" shape="8760.60,4621.95 8748.15,4608.02 8743.58,4602.92 8735.97,4594.45" speed="11.18" to="201149374" type="highway.secondary">
        <lane index="0" allow="pedestrian" width="2.00"/>
        <lane index="1" disallow="pedestrian tram rail_urban rail rail_electric rail_fast ship"/>
    </edge>
    <edge id="661061479.52" from="gneJ43" numLanes="3" priority="11" speed="11.18" to="201169073" type="highway.secondary">
        <lane index="0" allow="pedestrian" width="2.00"/>
        <lane index="1" disallow="pedestrian tram rail_urban rail rail_electric rail_fast ship"/>
        <lane index="2" disallow="pedestrian tram rail_urban rail rail_electric rail_fast ship"/>
    </edge>
    <edge id="661061487#0.144" from="gneJ26" numLanes="4" priority="12" shape="8941.44,3692.00 8980.59,3680.53" speed="11.18" spreadType="center" to="cluster_201119381_201119483" type="highway.primary">
        <lane index="0" allow="pedestrian" width="2.00"/>
        <lane index="1" disallow="pedestrian tram rail_urban rail rail_electric rail_fast ship"/>
        <lane index="2" disallow="pedestrian tram rail_urban rail rail_electric rail_fast ship"/>
        <lane index="3" disallow="pedestrian tram rail_urban rail rail_electric rail_fast ship"/>
    </edge>
    <edge id="661061487#3.24" from="gneJ35" numLanes="3" priority="12" shape="9183.72,3632.62 9220.12,3624.45" speed="11.18" spreadType="center" to="201119369" type="highway.primary">
        <lane index="0" allow="pedestrian" width="2.00"/>
        <lane index="1" disallow="pedestrian tram rail_urban rail rail_electric rail_fast ship"/>
        <lane index="2" disallow="pedestrian tram rail_urban rail rail_electric rail_fast ship"/>
    </edge>
    <edge id="661061487#4.58" from="gneJ36" numLanes="3" priority="12" shape="9278.97,3622.98 9288.54,3623.28 9292.45,3623.51 9304.06,3625.43 9318.08,3626.95 9332.31,3630.02 9343.12,3631.95" speed="11.18" spreadType="center" to="201060289" type="highway.primary">
        <lane index="0" allow="pedestrian" width="2.00"/>
        <lane index="1" disallow="pedestrian tram rail_urban rail rail_electric rail_fast ship"/>
        <lane index="2" disallow="pedestrian tram rail_urban rail rail_electric rail_fast ship"/>
    </edge>
    <edge id="71472729#1.22" from="gneJ22" numLanes="3" priority="12" shape="8329.37,4197.66 8337.76,4189.37 8347.42,4180.98 8356.82,4175.38 8374.62,4165.09 8383.18,4159.84 8394.70,4148.68 8410.02,4127.47" speed="11.18" spreadType="center" to="201065291" type="highway.primary">
        <lane index="0" allow="pedestrian" width="2.00"/>
        <lane index="1" disallow="pedestrian tram rail_urban rail rail_electric rail_fast ship"/>
        <lane index="2" disallow="pedestrian tram rail_urban rail rail_electric rail_fast ship"/>
    </edge>
    <edge id="71472826.104" from="gneJ13" numLanes="4" priority="12" shape="8269.94,4543.40 8269.95,4543.19 8273.33,4505.04 8274.76,4485.82" speed="11.18" to="201102463" type="highway.primary">
        <lane index="0" allow="pedestrian" width="2.00"/>
        <lane index="1" disallow="pedestrian tram rail_urban rail rail_electric rail_fast ship"/>
        <lane index="2" disallow="pedestrian tram rail_urban rail rail_electric rail_fast ship"/>
        <lane index="3" disallow="pedestrian tram rail_urban rail rail_electric rail_fast ship"/>
    </edge>
    <edge id="92384042#0.333" from="gneJ41" numLanes="4" priority="12" shape="10481.93,4247.51 10474.94,4244.87 10421.45,4223.39 10408.49,4217.38" speed="11.18" spreadType="center" to="201099869" type="highway.primary">
        <lane index="0" allow="pedestrian" width="2.00"/>
        <lane index="1" allow="bicycle" width="2.00"/>
        <lane index="2" disallow="pedestrian tram rail_urban rail rail_electric rail_fast ship"/>
        <lane index="3" disallow="pedestrian tram rail_urban rail rail_electric rail_fast ship"/>
    </edge>
    <edge id="92384042#1.383" from="gneJ40" numLanes="4" priority="12" shape="10090.63,4007.89 10076.61,3994.19 10056.19,3971.18 10045.06,3960.17 10033.32,3948.71 10030.08,3945.70" speed="11.18" spreadType="center" to="201119548" type="highway.primary">
        <lane index="0" allow="pedestrian" width="2.00"/>
        <lane index="1" allow="bicycle" width="2.00"/>
        <lane index="2" disallow="pedestrian tram rail_urban rail rail_electric rail_fast ship"/>
        <lane index="3" disallow="pedestrian tram rail_urban rail rail_electric rail_fast ship"/>
    </edge>
    <edge id="92384042#2.127" from="gneJ39" numLanes="4" priority="12" shape="9926.90,3871.78 9915.82,3863.83 9904.87,3856.86 9890.19,3850.96 9873.51,3844.97" speed="11.18" spreadType="center" to="201119534" type="highway.primary">
        <lane index="0" allow="pedestrian" width="2.00"/>
        <lane index="1" allow="bicycle" width="2.00"/>
        <lane index="2" disallow="pedestrian tram rail_urban rail rail_electric rail_fast ship"/>
        <lane index="3" disallow="pedestrian tram rail_urban rail rail_electric rail_fast ship"/>
    </edge>
    <edge id="92384042#3.83" from="gneJ38" numLanes="4" priority="12" shape="9796.57,3811.60 9743.11,3788.41" speed="11.18" spreadType="center" to="201099823" type="highway.primary">
        <lane index="0" allow="pedestrian" width="2.00"/>
        <lane index="1" allow="bicycle" width="2.00"/>
        <lane index="2" disallow="pedestrian tram rail_urban rail rail_electric rail_fast ship"/>
        <lane index="3" disallow="pedestrian tram rail_urban rail rail_electric rail_fast ship"/>
    </edge>
    <edge id="92384042#4.128" from="gneJ37" numLanes="4" priority="12" shape="9622.13,3746.58 9574.03,3729.94" speed="11.18" spreadType="center" to="201119531" type="highway.primary">
        <lane index="0" allow="pedestrian" width="2.00"/>
        <lane index="1" allow="bicycle" width="2.00"/>
        <lane index="2" disallow="pedestrian tram rail_urban rail rail_electric rail_fast ship"/>
        <lane index="3" disallow="pedestrian tram rail_urban rail rail_electric rail_fast ship"/>
    </edge>
    <edge id="gneE0" allow="pedestrian" from="201066043" numLanes="1" priority="-1" speed="13.89" to="201224423" width="2.00"/>
    <edge id="gneE10" allow="pedestrian" from="201150167" numLanes="1" priority="-1" speed="13.89" to="gneJ23" width="2.00"/>
    <edge id="gneE11" allow="pedestrian" from="201155821" numLanes="1" priority="-1" speed="13.89" to="gneJ23" width="2.00"/>
    <edge id="gneE12" allow="pedestrian" from="6247337146" numLanes="1" priority="-1" shape="7918.84,4666.42 7916.69,4707.31 7927.57,4708.06" speed="13.89" to="201143507" width="2.00"/>
    <edge id="gneE2" from="201121046" numLanes="2" priority="-1" speed="13.89" to="201178512">
        <lane index="0" allow="pedestrian" width="2.00"/>
        <lane index="1" disallow="pedestrian"/>
    </edge>
    <edge id="gneE3" allow="pedestrian" from="201149922" numLanes="1" priority="-1" speed="13.89" to="gneJ22"/>
    <edge id="gneE6" allow="pedestrian" from="201119393" numLanes="1" priority="-1" speed="13.89" to="201119470"/>
    <edge id="gneE8" allow="pedestrian" from="gneJ34" numLanes="1" priority="-1" speed="13.89" to="gneJ35"/>
    <edge id="gneE9" allow="pedestrian" from="201119515" numLanes="1" priority="-1" speed="13.89" to="gneJ36" width="2.00"/>
    <!-- Changed Elements -->
    <edge id="-19347482" numLanes="2">
        <lane index="0" allow="pedestrian" width="2.00"/>
        <lane index="1" disallow="pedestrian tram rail_urban rail rail_electric rail_fast ship"/>
    </edge>
    <edge id="-19347536#0" disallow="tram rail_urban rail rail_electric rail_fast ship"/>
    <edge id="-19347536#1" disallow="tram rail_urban rail rail_electric rail_fast ship"/>
    <edge id="-19347621#0" disallow="tram rail_urban rail rail_electric rail_fast ship"/>
    <edge id="-19347621#1" disallow="tram rail_urban rail rail_electric rail_fast ship"/>
    <edge id="-19347621#2" disallow="tram rail_urban rail rail_electric rail_fast ship"/>
    <edge id="-19347621#3" disallow="tram rail_urban rail rail_electric rail_fast ship"/>
    <edge id="-19347621#4" disallow="tram rail_urban rail rail_electric rail_fast ship"/>
    <edge id="-19347624#0" disallow="tram rail_urban rail rail_electric rail_fast ship"/>
    <edge id="-19347624#1" disallow="tram rail_urban rail rail_electric rail_fast ship"/>
    <edge id="-19348099" priority="1"/>
    <edge id="-19348921" allow="pedestrian passenger delivery bicycle"/>
    <edge id="-19349460" priority="2"/>
    <edge id="-19350002" disallow="tram rail_urban rail rail_electric rail_fast ship"/>
    <edge id="-19350122#0" disallow="tram rail_urban rail rail_electric rail_fast ship"/>
    <edge id="-19350122#1" disallow="tram rail_urban rail rail_electric rail_fast ship"/>
    <edge id="-19350122#3" disallow="tram rail_urban rail rail_electric rail_fast ship"/>
    <edge id="-19350122#4" disallow="tram rail_urban rail rail_electric rail_fast ship"/>
    <edge id="-19350122#5" disallow="tram rail_urban rail rail_electric rail_fast ship"/>
    <edge id="-19351401" priority="2"/>
    <edge id="-19351559" disallow="tram rail_urban rail rail_electric rail_fast ship"/>
    <edge id="-19351581" disallow="tram rail_urban rail rail_electric rail_fast ship"/>
    <edge id="-19351618#0" disallow="tram rail_urban rail rail_electric rail_fast ship"/>
    <edge id="-19351618#1" disallow="tram rail_urban rail rail_electric rail_fast ship"/>
    <edge id="-19351618#2" disallow="tram rail_urban rail rail_electric rail_fast ship"/>
    <edge id="-19351696#0" numLanes="2">
        <lane index="0" allow="pedestrian" width="2.00"/>
        <lane index="1" disallow="pedestrian tram rail_urban rail rail_electric rail_fast ship"/>
    </edge>
    <edge id="-19351696#10" priority="4"/>
    <edge id="-19351696#11" priority="4"/>
    <edge id="-19351696#6" numLanes="2">
        <lane index="0" allow="pedestrian" width="2.00"/>
        <lane index="1" disallow="pedestrian tram rail_urban rail rail_electric rail_fast ship"/>
    </edge>
    <edge id="-19351696#7" numLanes="2">
        <lane index="0" allow="pedestrian" width="2.00"/>
        <lane index="1" disallow="pedestrian tram rail_urban rail rail_electric rail_fast ship"/>
    </edge>
    <edge id="-19351696#8" priority="4"/>
    <edge id="-19351696#9" priority="4"/>
    <edge id="-19351857#0" disallow="pedestrian tram rail_urban rail rail_electric rail_fast ship" numLanes="1"/>
    <edge id="-19351857#11" disallow="pedestrian tram rail_urban rail rail_electric rail_fast ship" numLanes="1"/>
    <edge id="-19351857#12" disallow="pedestrian tram rail_urban rail rail_electric rail_fast ship" numLanes="1"/>
    <edge id="-19351857#13" disallow="pedestrian tram rail_urban rail rail_electric rail_fast ship" numLanes="1"/>
    <edge id="-19351857#14" disallow="pedestrian tram rail_urban rail rail_electric rail_fast ship" numLanes="1"/>
    <edge id="-19351857#2" disallow="pedestrian tram rail_urban rail rail_electric rail_fast ship" numLanes="1"/>
    <edge id="-19351857#3" disallow="pedestrian tram rail_urban rail rail_electric rail_fast ship" numLanes="1"/>
    <edge id="-19351857#4" disallow="pedestrian tram rail_urban rail rail_electric rail_fast ship" numLanes="1"/>
    <edge id="-19351857#5" disallow="pedestrian tram rail_urban rail rail_electric rail_fast ship" numLanes="1"/>
    <edge id="-19351857#6" disallow="pedestrian tram rail_urban rail rail_electric rail_fast ship" numLanes="1"/>
    <edge id="-19351857#9" disallow="pedestrian tram rail_urban rail rail_electric rail_fast ship" numLanes="1"/>
    <edge id="-19351906" shape="8432.70,4501.47 8426.61,4500.03 8397.07,4496.63 8317.46,4489.49" to="gneJ18"/>
    <edge id="-19351910#2" priority="4"/>
    <edge id="-19351910#3" priority="4"/>
    <edge id="-19351928" numLanes="2"/>
    <edge id="-19352017#0" >
        <lane index="1" disallow="pedestrian tram rail_urban rail rail_electric ship"/>
    </edge>
    <edge id="-19352017#1" >
        <lane index="1" disallow="pedestrian tram rail_urban rail rail_electric ship"/>
    </edge>
    <edge id="-19352017#2" >
        <lane index="1" disallow="pedestrian tram rail_urban rail rail_electric ship"/>
    </edge>
    <edge id="-19352102#0" priority="2"/>
    <edge id="-19352220#0" priority="2"/>
    <edge id="-19352285#11" disallow="tram rail_urban rail rail_electric rail_fast ship" numLanes="1"/>
    <edge id="-19352285#12" disallow="tram rail_urban rail rail_electric rail_fast ship" numLanes="1"/>
    <edge id="-19352285#13" disallow="pedestrian tram rail_urban rail rail_electric rail_fast ship" numLanes="1"/>
    <edge id="-19352285#14" disallow="pedestrian tram rail_urban rail rail_electric rail_fast ship" numLanes="1"/>
    <edge id="-19352285#15" disallow="pedestrian tram rail_urban rail rail_electric rail_fast ship" numLanes="1"/>
    <edge id="-19352285#16" disallow="pedestrian tram rail_urban rail rail_electric rail_fast ship" numLanes="1"/>
    <edge id="-19352285#17" disallow="pedestrian tram rail_urban rail rail_electric rail_fast ship" numLanes="1"/>
    <edge id="-19352285#18" disallow="pedestrian tram rail_urban rail rail_electric rail_fast ship" numLanes="1"/>
    <edge id="-19352325" priority="2"/>
    <edge id="-19352433" numLanes="2">
        <lane index="0" allow="pedestrian" width="2.00"/>
        <lane index="1" disallow="pedestrian tram rail_urban rail rail_electric rail_fast ship"/>
    </edge>
    <edge id="-19352447" numLanes="2">
        <lane index="0" allow="pedestrian" width="2.00"/>
        <lane index="1" disallow="pedestrian tram rail_urban rail rail_electric rail_fast ship"/>
    </edge>
    <edge id="-19352449#0" numLanes="2">
        <lane index="0" allow="pedestrian" width="2.00"/>
        <lane index="1" disallow="pedestrian tram rail_urban rail rail_electric rail_fast ship"/>
    </edge>
    <edge id="-19352456#0" numLanes="2" priority="4">
        <lane index="0" allow="pedestrian" width="2.00"/>
        <lane index="1" disallow="pedestrian tram rail_urban rail rail_electric rail_fast ship"/>
    </edge>
    <edge id="-19352456#1" numLanes="2" priority="4">
        <lane index="0" allow="pedestrian" width="2.00"/>
        <lane index="1" disallow="pedestrian tram rail_urban rail rail_electric rail_fast ship"/>
    </edge>
    <edge id="-19352456#2" numLanes="2">
        <lane index="0" allow="pedestrian" width="2.00"/>
        <lane index="1" disallow="pedestrian tram rail_urban rail rail_electric rail_fast ship"/>
    </edge>
    <edge id="-19352456#3" numLanes="2">
        <lane index="0" allow="pedestrian" width="2.00"/>
        <lane index="1" disallow="pedestrian tram rail_urban rail rail_electric rail_fast ship"/>
    </edge>
    <edge id="-19352456#5" priority="5"/>
    <edge id="-19352542" priority="2"/>
    <edge id="-19352621#0" numLanes="2">
        <lane index="0" allow="pedestrian" width="2.00"/>
        <lane index="1" disallow="pedestrian tram rail_urban rail rail_electric rail_fast ship"/>
    </edge>
    <edge id="-19352621#1" numLanes="2">
        <lane index="0" allow="pedestrian" width="2.00"/>
        <lane index="1" disallow="pedestrian tram rail_urban rail rail_electric rail_fast ship"/>
    </edge>
    <edge id="-19352621#2" numLanes="2">
        <lane index="0" allow="pedestrian" width="2.00"/>
        <lane index="1" disallow="pedestrian tram rail_urban rail rail_electric rail_fast ship"/>
    </edge>
    <edge id="-19352671#0" numLanes="2">
        <lane index="0" allow="pedestrian" width="2.00"/>
        <lane index="1" disallow="pedestrian tram rail_urban rail rail_electric rail_fast ship"/>
    </edge>
    <edge id="-19352671#1" numLanes="2">
        <lane index="0" allow="pedestrian" width="2.00"/>
        <lane index="1" disallow="pedestrian tram rail_urban rail rail_electric rail_fast ship"/>
    </edge>
    <edge id="-19352679" numLanes="2">
        <lane index="0" allow="pedestrian" width="2.00"/>
        <lane index="1" disallow="pedestrian tram rail_urban rail rail_electric rail_fast ship"/>
    </edge>
    <edge id="-19352722" numLanes="2" priority="2">
        <lane index="0" allow="pedestrian" width="2.00"/>
        <lane index="1" disallow="pedestrian tram rail_urban rail rail_electric rail_fast ship"/>
    </edge>
    <edge id="-19352768" numLanes="2">
        <lane index="0" allow="pedestrian" width="2.00"/>
        <lane index="1" disallow="pedestrian tram rail_urban rail rail_electric rail_fast ship"/>
    </edge>
    <edge id="-19353092#0" numLanes="2" priority="4">
        <lane index="0" allow="pedestrian" width="2.00"/>
        <lane index="1" disallow="pedestrian tram rail_urban rail rail_electric rail_fast ship"/>
    </edge>
    <edge id="-19353092#1" numLanes="2" priority="4">
        <lane index="0" allow="pedestrian" width="2.00"/>
        <lane index="1" disallow="pedestrian tram rail_urban rail rail_electric rail_fast ship"/>
    </edge>
    <edge id="-19353092#2" numLanes="2" priority="4">
        <lane index="0" allow="pedestrian" width="2.00"/>
        <lane index="1" disallow="pedestrian tram rail_urban rail rail_electric rail_fast ship"/>
    </edge>
    <edge id="-19353092#3" numLanes="2" priority="4">
        <lane index="0" allow="pedestrian" width="2.00"/>
        <lane index="1" disallow="pedestrian tram rail_urban rail rail_electric rail_fast ship"/>
    </edge>
    <edge id="-19353092#4" numLanes="2">
        <lane index="0" allow="pedestrian" width="2.00"/>
        <lane index="1" disallow="pedestrian tram rail_urban rail rail_electric rail_fast ship"/>
    </edge>
    <edge id="-19353092#5" numLanes="2" priority="4">
        <lane index="0" allow="pedestrian" width="2.00"/>
        <lane index="1" disallow="pedestrian tram rail_urban rail rail_electric rail_fast ship"/>
    </edge>
    <edge id="-19353092#6" priority="4"/>
    <edge id="-19353092#7" priority="4"/>
    <edge id="-19353092#8" priority="4"/>
    <edge id="-19353322" numLanes="2" priority="2">
        <lane index="0" allow="pedestrian" width="2.00"/>
        <lane index="1" disallow="pedestrian tram rail_urban rail rail_electric rail_fast ship"/>
    </edge>
    <edge id="-19353333#0" priority="9"/>
    <edge id="-19353381" numLanes="2">
        <lane index="0" allow="pedestrian" width="2.00"/>
        <lane index="1" disallow="pedestrian tram rail_urban rail rail_electric rail_fast ship"/>
    </edge>
    <edge id="-19353461" numLanes="2" priority="2">
        <lane index="0" allow="pedestrian" width="2.00"/>
        <lane index="1" disallow="pedestrian tram rail_urban rail rail_electric rail_fast ship"/>
    </edge>
    <edge id="-19353499#1" numLanes="2">
        <lane index="0" allow="pedestrian" width="2.00"/>
        <lane index="1" disallow="pedestrian tram rail_urban rail rail_electric rail_fast ship"/>
    </edge>
    <edge id="-19353551#0" numLanes="2">
        <lane index="0" allow="pedestrian" width="2.00"/>
        <lane index="1" disallow="pedestrian tram rail_urban rail rail_electric rail_fast ship"/>
    </edge>
    <edge id="-19353551#1" numLanes="2">
        <lane index="0" allow="pedestrian" width="2.00"/>
        <lane index="1" disallow="pedestrian tram rail_urban rail rail_electric rail_fast ship"/>
    </edge>
    <edge id="-19353551#10" numLanes="2">